data_image0
_cell_length_a       7.6985
_cell_length_b       8.6832
_cell_length_c       10.9672
_cell_angle_alpha    71.118
_cell_angle_beta     72.434
_cell_angle_gamma    86.012

_symmetry_space_group_name_H-M    "P 1"
_symmetry_int_tables_number       1

loop_
  _symmetry_equiv_pos_as_xyz
  'x, y, z'

loop_
  _atom_site_label
  _atom_site_occupancy
  _atom_site_fract_x
  _atom_site_fract_y
  _atom_site_fract_z
  _atom_site_thermal_displace_type
  _atom_site_B_iso_or_equiv
  _atom_site_type_symbol
  Ni1      1.0000 0.39738  0.28629  0.49901  Biso   1.000  Ni
  Cl1      1.0000 0.30503  0.16237  0.35304  Biso   1.000  Cl
  N1       1.0000 0.51100  0.50390  0.65890  Biso   1.000  N
  N2       1.0000 0.45540  0.36440  0.64120  Biso   1.000  N
  N3       1.0000 0.43420  0.31290  0.85380  Biso   1.000  N
  N4       1.0000 0.35430  0.10070  0.78430  Biso   1.000  N
  H1       1.0000 0.25400  0.07520  0.85620  Biso   1.000  H
  H2       1.0000 0.44180  0.03240  0.80560  Biso   1.000  H
  N5       1.0000 0.31380  0.07550  0.67330  Biso   1.000  N
  H3       1.0000 0.19330  0.05610  0.69430  Biso   1.000  H
  H4       1.0000 0.37250  0.98820  0.65580  Biso   1.000  H
  N6       1.0000 0.37960  0.22340  0.99300  Biso   1.000  N
  H5       1.0000 0.29000  0.27430  0.03620  Biso   1.000  H
  H6       1.0000 0.47410  0.21650  0.02510  Biso   1.000  H
  C1       1.0000 0.40990  0.25380  0.76030  Biso   1.000  C
  C2       1.0000 0.49500  0.46900  0.78630  Biso   1.000  C
  H7       1.0000 0.52150  0.54110  0.82560  Biso   1.000  H
  Ni2      1.0000 0.60262  0.71371  0.50099  Biso   1.000  Ni
  Cl2      1.0000 0.69497  0.83763  0.64696  Biso   1.000  Cl
  N7       1.0000 0.48900  0.49610  0.34110  Biso   1.000  N
  N8       1.0000 0.54460  0.63560  0.35880  Biso   1.000  N
  N9       1.0000 0.56580  0.68710  0.14620  Biso   1.000  N
  N10      1.0000 0.64570  0.89930  0.21570  Biso   1.000  N
  H8       1.0000 0.74600  0.92480  0.14380  Biso   1.000  H
  H9       1.0000 0.55820  0.96760  0.19440  Biso   1.000  H
  N11      1.0000 0.68620  0.92450  0.32670  Biso   1.000  N
  H10      1.0000 0.80670  0.94390  0.30570  Biso   1.000  H
  H11      1.0000 0.62750  0.01180  0.34420  Biso   1.000  H
  N12      1.0000 0.62040  0.77660  0.00700  Biso   1.000  N
  H12      1.0000 0.71000  0.72570  0.96380  Biso   1.000  H
  H13      1.0000 0.52590  0.78350  0.97490  Biso   1.000  H
  C3       1.0000 0.59010  0.74620  0.23970  Biso   1.000  C
  C4       1.0000 0.50500  0.53100  0.21370  Biso   1.000  C
  H14      1.0000 0.47850  0.45890  0.17440  Biso   1.000  H
