data_image0
_cell_length_a       33.327
_cell_length_b       10.3153
_cell_length_c       13.3212
_cell_angle_alpha    90
_cell_angle_beta     112.453
_cell_angle_gamma    90

_symmetry_space_group_name_H-M    "P 1"
_symmetry_int_tables_number       1

loop_
  _symmetry_equiv_pos_as_xyz
  'x, y, z'

loop_
  _atom_site_label
  _atom_site_occupancy
  _atom_site_fract_x
  _atom_site_fract_y
  _atom_site_fract_z
  _atom_site_thermal_displace_type
  _atom_site_B_iso_or_equiv
  _atom_site_type_symbol
  Ag1      1.0000 0.11951  0.09716  0.92676  Biso   1.000  Ag
  Ag2      1.0000 0.12480  0.04630  0.93820  Biso   1.000  Ag
  Ag3      1.0000 0.85592  0.91569  0.77974  Biso   1.000  Ag
  N1       1.0000 0.39233  0.43050  0.40120  Biso   1.000  N
  N2       1.0000 0.17230  0.14990  0.07920  Biso   1.000  N
  N3       1.0000 0.58726  0.55520  0.29820  Biso   1.000  N
  N4       1.0000 0.80270  0.87220  0.62920  Biso   1.000  N
  C1       1.0000 0.50190  0.53160  0.31720  Biso   1.000  C
  H1       1.0000 0.48230  0.59420  0.26330  Biso   1.000  H
  C2       1.0000 0.45970  0.55750  0.44040  Biso   1.000  C
  H2       1.0000 0.48510  0.59500  0.49990  Biso   1.000  H
  H3       1.0000 0.44360  0.62940  0.39290  Biso   1.000  H
  C3       1.0000 0.55020  0.49360  0.21020  Biso   1.000  C
  H4       1.0000 0.56110  0.42510  0.17490  Biso   1.000  H
  H5       1.0000 0.53480  0.55920  0.15460  Biso   1.000  H
  C4       1.0000 0.65860  0.66180  0.33290  Biso   1.000  C
  C5       1.0000 0.24420  0.23560  0.21990  Biso   1.000  C
  C6       1.0000 0.40860  0.33260  0.34830  Biso   1.000  C
  H6       1.0000 0.38380  0.28660  0.29360  Biso   1.000  H
  H7       1.0000 0.42590  0.26840  0.40290  Biso   1.000  H
  C7       1.0000 0.27930  0.14690  0.26790  Biso   1.000  C
  H8       1.0000 0.27650  0.05780  0.24840  Biso   1.000  H
  C8       1.0000 0.31670  0.19410  0.34190  Biso   1.000  C
  H9       1.0000 0.34030  0.13630  0.37400  Biso   1.000  H
  C9       1.0000 0.43650  0.39080  0.29310  Biso   1.000  C
  H10      1.0000 0.41890  0.45160  0.23570  Biso   1.000  H
  H11      1.0000 0.44700  0.32100  0.25810  Biso   1.000  H
  C10      1.0000 0.36510  0.37310  0.45450  Biso   1.000  C
  H12      1.0000 0.35890  0.43970  0.50010  Biso   1.000  H
  H13      1.0000 0.38130  0.30180  0.50270  Biso   1.000  H
  C11      1.0000 0.28730  0.40690  0.32540  Biso   1.000  C
  H14      1.0000 0.29060  0.49560  0.34610  Biso   1.000  H
  C12      1.0000 0.24770  0.36270  0.24790  Biso   1.000  C
  H15      1.0000 0.22390  0.42030  0.21590  Biso   1.000  H
  C13      1.0000 0.54050  0.60810  0.39870  Biso   1.000  C
  H16      1.0000 0.52930  0.68040  0.42920  Biso   1.000  H
  H17      1.0000 0.55750  0.55020  0.45940  Biso   1.000  H
  C14      1.0000 0.73060  0.63560  0.47060  Biso   1.000  C
  H18      1.0000 0.75410  0.58140  0.51270  Biso   1.000  H
  C15      1.0000 0.69330  0.58240  0.39640  Biso   1.000  C
  H19      1.0000 0.69090  0.49090  0.38790  Biso   1.000  H
  C16      1.0000 0.20320  0.18880  0.13850  Biso   1.000  C
  C17      1.0000 0.51900  0.43460  0.25640  Biso   1.000  C
  H20      1.0000 0.53400  0.36340  0.30660  Biso   1.000  H
  H21      1.0000 0.49400  0.39650  0.19620  Biso   1.000  H
  C18      1.0000 0.66210  0.79540  0.34510  Biso   1.000  C
  H22      1.0000 0.63900  0.84990  0.30200  Biso   1.000  H
  C19      1.0000 0.57020  0.66200  0.34660  Biso   1.000  C
  H23      1.0000 0.55390  0.72470  0.28920  Biso   1.000  H
  H24      1.0000 0.59470  0.70840  0.40190  Biso   1.000  H
  C20      1.0000 0.77160  0.82670  0.56160  Biso   1.000  C
  C21      1.0000 0.61830  0.60520  0.24980  Biso   1.000  C
  H25      1.0000 0.62650  0.53330  0.21210  Biso   1.000  H
  H26      1.0000 0.60360  0.67240  0.19500  Biso   1.000  H
  C22      1.0000 0.43060  0.49110  0.48790  Biso   1.000  C
  H27      1.0000 0.44730  0.42340  0.53970  Biso   1.000  H
  H28      1.0000 0.42050  0.55520  0.52830  Biso   1.000  H
  C23      1.0000 0.73390  0.77170  0.48390  Biso   1.000  C
  C24      1.0000 0.32190  0.31990  0.37220  Biso   1.000  C
  C25      1.0000 0.70080  0.85000  0.42310  Biso   1.000  C
  H29      1.0000 0.70330  0.94140  0.43260  Biso   1.000  H
  C26      1.0000 0.47560  0.46330  0.37450  Biso   1.000  C
  H30      1.0000 0.49500  0.39810  0.42590  Biso   1.000  H
  Ag4      1.0000 0.61951  0.40284  0.42676  Biso   1.000  Ag
  Ag5      1.0000 0.62480  0.45370  0.43820  Biso   1.000  Ag
  Ag6      1.0000 0.35592  0.58431  0.27974  Biso   1.000  Ag
  N5       1.0000 0.89233  0.06950  0.90120  Biso   1.000  N
  N6       1.0000 0.67230  0.35010  0.57920  Biso   1.000  N
  N7       1.0000 0.08726  0.94480  0.79820  Biso   1.000  N
  N8       1.0000 0.30270  0.62780  0.12920  Biso   1.000  N
  C27      1.0000 0.00190  0.96840  0.81720  Biso   1.000  C
  H31      1.0000 0.98230  0.90580  0.76330  Biso   1.000  H
  C28      1.0000 0.95970  0.94250  0.94040  Biso   1.000  C
  H32      1.0000 0.98510  0.90500  0.99990  Biso   1.000  H
  H33      1.0000 0.94360  0.87060  0.89290  Biso   1.000  H
  C29      1.0000 0.05020  0.00640  0.71020  Biso   1.000  C
  H34      1.0000 0.06110  0.07490  0.67490  Biso   1.000  H
  H35      1.0000 0.03480  0.94080  0.65460  Biso   1.000  H
  C30      1.0000 0.15860  0.83820  0.83290  Biso   1.000  C
  C31      1.0000 0.74420  0.26440  0.71990  Biso   1.000  C
  C32      1.0000 0.90860  0.16740  0.84830  Biso   1.000  C
  H36      1.0000 0.88380  0.21340  0.79360  Biso   1.000  H
  H37      1.0000 0.92590  0.23160  0.90290  Biso   1.000  H
  C33      1.0000 0.77930  0.35310  0.76790  Biso   1.000  C
  H38      1.0000 0.77650  0.44220  0.74840  Biso   1.000  H
  C34      1.0000 0.81670  0.30590  0.84190  Biso   1.000  C
  H39      1.0000 0.84030  0.36370  0.87400  Biso   1.000  H
  C35      1.0000 0.93650  0.10920  0.79310  Biso   1.000  C
  H40      1.0000 0.91890  0.04840  0.73570  Biso   1.000  H
  H41      1.0000 0.94700  0.17900  0.75810  Biso   1.000  H
  C36      1.0000 0.86510  0.12690  0.95450  Biso   1.000  C
  H42      1.0000 0.85890  0.06030  0.00010  Biso   1.000  H
  H43      1.0000 0.88130  0.19820  0.00270  Biso   1.000  H
  C37      1.0000 0.78730  0.09310  0.82540  Biso   1.000  C
  H44      1.0000 0.79060  0.00440  0.84610  Biso   1.000  H
  C38      1.0000 0.74770  0.13730  0.74790  Biso   1.000  C
  H45      1.0000 0.72390  0.07970  0.71590  Biso   1.000  H
  C39      1.0000 0.04050  0.89190  0.89870  Biso   1.000  C
  H46      1.0000 0.02930  0.81960  0.92920  Biso   1.000  H
  H47      1.0000 0.05750  0.94980  0.95940  Biso   1.000  H
  C40      1.0000 0.23060  0.86440  0.97060  Biso   1.000  C
  H48      1.0000 0.25410  0.91860  0.01270  Biso   1.000  H
  C41      1.0000 0.19330  0.91760  0.89640  Biso   1.000  C
  H49      1.0000 0.19090  0.00910  0.88790  Biso   1.000  H
  C42      1.0000 0.70320  0.31120  0.63850  Biso   1.000  C
  C43      1.0000 0.01900  0.06540  0.75640  Biso   1.000  C
  H50      1.0000 0.03400  0.13660  0.80660  Biso   1.000  H
  H51      1.0000 0.99400  0.10350  0.69620  Biso   1.000  H
  C44      1.0000 0.16210  0.70460  0.84510  Biso   1.000  C
  H52      1.0000 0.13900  0.65010  0.80200  Biso   1.000  H
  C45      1.0000 0.07020  0.83800  0.84660  Biso   1.000  C
  H53      1.0000 0.05390  0.77530  0.78920  Biso   1.000  H
  H54      1.0000 0.09470  0.79160  0.90190  Biso   1.000  H
  C46      1.0000 0.27160  0.67330  0.06160  Biso   1.000  C
  C47      1.0000 0.11830  0.89480  0.74980  Biso   1.000  C
  H55      1.0000 0.12650  0.96670  0.71210  Biso   1.000  H
  H56      1.0000 0.10360  0.82760  0.69500  Biso   1.000  H
  C48      1.0000 0.93060  0.00890  0.98790  Biso   1.000  C
  H57      1.0000 0.94730  0.07660  0.03970  Biso   1.000  H
  H58      1.0000 0.92050  0.94480  0.02830  Biso   1.000  H
  C49      1.0000 0.23390  0.72830  0.98390  Biso   1.000  C
  C50      1.0000 0.82190  0.18010  0.87220  Biso   1.000  C
  C51      1.0000 0.20080  0.65000  0.92310  Biso   1.000  C
  H59      1.0000 0.20330  0.55860  0.93260  Biso   1.000  H
  C52      1.0000 0.97560  0.03670  0.87450  Biso   1.000  C
  H60      1.0000 0.99500  0.10190  0.92590  Biso   1.000  H
  Ag7      1.0000 0.61951  0.59716  0.92676  Biso   1.000  Ag
  Ag8      1.0000 0.62480  0.54630  0.93820  Biso   1.000  Ag
  Ag9      1.0000 0.35592  0.41569  0.77974  Biso   1.000  Ag
  N9       1.0000 0.89233  0.93050  0.40120  Biso   1.000  N
  N10      1.0000 0.67230  0.64990  0.07920  Biso   1.000  N
  N11      1.0000 0.08726  0.05520  0.29820  Biso   1.000  N
  N12      1.0000 0.30270  0.37220  0.62920  Biso   1.000  N
  C53      1.0000 0.00190  0.03160  0.31720  Biso   1.000  C
  H61      1.0000 0.98230  0.09420  0.26330  Biso   1.000  H
  C54      1.0000 0.95970  0.05750  0.44040  Biso   1.000  C
  H62      1.0000 0.98510  0.09500  0.49990  Biso   1.000  H
  H63      1.0000 0.94360  0.12940  0.39290  Biso   1.000  H
  C55      1.0000 0.05020  0.99360  0.21020  Biso   1.000  C
  H64      1.0000 0.06110  0.92510  0.17490  Biso   1.000  H
  H65      1.0000 0.03480  0.05920  0.15460  Biso   1.000  H
  C56      1.0000 0.15860  0.16180  0.33290  Biso   1.000  C
  C57      1.0000 0.74420  0.73560  0.21990  Biso   1.000  C
  C58      1.0000 0.90860  0.83260  0.34830  Biso   1.000  C
  H66      1.0000 0.88380  0.78660  0.29360  Biso   1.000  H
  H67      1.0000 0.92590  0.76840  0.40290  Biso   1.000  H
  C59      1.0000 0.77930  0.64690  0.26790  Biso   1.000  C
  H68      1.0000 0.77650  0.55780  0.24840  Biso   1.000  H
  C60      1.0000 0.81670  0.69410  0.34190  Biso   1.000  C
  H69      1.0000 0.84030  0.63630  0.37400  Biso   1.000  H
  C61      1.0000 0.93650  0.89080  0.29310  Biso   1.000  C
  H70      1.0000 0.91890  0.95160  0.23570  Biso   1.000  H
  H71      1.0000 0.94700  0.82100  0.25810  Biso   1.000  H
  C62      1.0000 0.86510  0.87310  0.45450  Biso   1.000  C
  H72      1.0000 0.85890  0.93970  0.50010  Biso   1.000  H
  H73      1.0000 0.88130  0.80180  0.50270  Biso   1.000  H
  C63      1.0000 0.78730  0.90690  0.32540  Biso   1.000  C
  H74      1.0000 0.79060  0.99560  0.34610  Biso   1.000  H
  C64      1.0000 0.74770  0.86270  0.24790  Biso   1.000  C
  H75      1.0000 0.72390  0.92030  0.21590  Biso   1.000  H
  C65      1.0000 0.04050  0.10810  0.39870  Biso   1.000  C
  H76      1.0000 0.02930  0.18040  0.42920  Biso   1.000  H
  H77      1.0000 0.05750  0.05020  0.45940  Biso   1.000  H
  C66      1.0000 0.23060  0.13560  0.47060  Biso   1.000  C
  H78      1.0000 0.25410  0.08140  0.51270  Biso   1.000  H
  C67      1.0000 0.19330  0.08240  0.39640  Biso   1.000  C
  H79      1.0000 0.19090  0.99090  0.38790  Biso   1.000  H
  C68      1.0000 0.70320  0.68880  0.13850  Biso   1.000  C
  C69      1.0000 0.01900  0.93460  0.25640  Biso   1.000  C
  H80      1.0000 0.03400  0.86340  0.30660  Biso   1.000  H
  H81      1.0000 0.99400  0.89650  0.19620  Biso   1.000  H
  C70      1.0000 0.16210  0.29540  0.34510  Biso   1.000  C
  H82      1.0000 0.13900  0.34990  0.30200  Biso   1.000  H
  C71      1.0000 0.07020  0.16200  0.34660  Biso   1.000  C
  H83      1.0000 0.05390  0.22470  0.28920  Biso   1.000  H
  H84      1.0000 0.09470  0.20840  0.40190  Biso   1.000  H
  C72      1.0000 0.27160  0.32670  0.56160  Biso   1.000  C
  C73      1.0000 0.11830  0.10520  0.24980  Biso   1.000  C
  H85      1.0000 0.12650  0.03330  0.21210  Biso   1.000  H
  H86      1.0000 0.10360  0.17240  0.19500  Biso   1.000  H
  C74      1.0000 0.93060  0.99110  0.48790  Biso   1.000  C
  H87      1.0000 0.94730  0.92340  0.53970  Biso   1.000  H
  H88      1.0000 0.92050  0.05520  0.52830  Biso   1.000  H
  C75      1.0000 0.23390  0.27170  0.48390  Biso   1.000  C
  C76      1.0000 0.82190  0.81990  0.37220  Biso   1.000  C
  C77      1.0000 0.20080  0.35000  0.42310  Biso   1.000  C
  H89      1.0000 0.20330  0.44140  0.43260  Biso   1.000  H
  C78      1.0000 0.97560  0.96330  0.37450  Biso   1.000  C
  H90      1.0000 0.99500  0.89810  0.42590  Biso   1.000  H
  Ag10     1.0000 0.11951  0.90284  0.42676  Biso   1.000  Ag
  Ag11     1.0000 0.12480  0.95370  0.43820  Biso   1.000  Ag
  Ag12     1.0000 0.85592  0.08431  0.27974  Biso   1.000  Ag
  N13      1.0000 0.39233  0.56950  0.90120  Biso   1.000  N
  N14      1.0000 0.17230  0.85010  0.57920  Biso   1.000  N
  N15      1.0000 0.58726  0.44480  0.79820  Biso   1.000  N
  N16      1.0000 0.80270  0.12780  0.12920  Biso   1.000  N
  C79      1.0000 0.50190  0.46840  0.81720  Biso   1.000  C
  H91      1.0000 0.48230  0.40580  0.76330  Biso   1.000  H
  C80      1.0000 0.45970  0.44250  0.94040  Biso   1.000  C
  H92      1.0000 0.48510  0.40500  0.99990  Biso   1.000  H
  H93      1.0000 0.44360  0.37060  0.89290  Biso   1.000  H
  C81      1.0000 0.55020  0.50640  0.71020  Biso   1.000  C
  H94      1.0000 0.56110  0.57490  0.67490  Biso   1.000  H
  H95      1.0000 0.53480  0.44080  0.65460  Biso   1.000  H
  C82      1.0000 0.65860  0.33820  0.83290  Biso   1.000  C
  C83      1.0000 0.24420  0.76440  0.71990  Biso   1.000  C
  C84      1.0000 0.40860  0.66740  0.84830  Biso   1.000  C
  H96      1.0000 0.38380  0.71340  0.79360  Biso   1.000  H
  H97      1.0000 0.42590  0.73160  0.90290  Biso   1.000  H
  C85      1.0000 0.27930  0.85310  0.76790  Biso   1.000  C
  H98      1.0000 0.27650  0.94220  0.74840  Biso   1.000  H
  C86      1.0000 0.31670  0.80590  0.84190  Biso   1.000  C
  H99      1.0000 0.34030  0.86370  0.87400  Biso   1.000  H
  C87      1.0000 0.43650  0.60920  0.79310  Biso   1.000  C
  H100     1.0000 0.41890  0.54840  0.73570  Biso   1.000  H
  H101     1.0000 0.44700  0.67900  0.75810  Biso   1.000  H
  C88      1.0000 0.36510  0.62690  0.95450  Biso   1.000  C
  H102     1.0000 0.35890  0.56030  0.00010  Biso   1.000  H
  H103     1.0000 0.38130  0.69820  0.00270  Biso   1.000  H
  C89      1.0000 0.28730  0.59310  0.82540  Biso   1.000  C
  H104     1.0000 0.29060  0.50440  0.84610  Biso   1.000  H
  C90      1.0000 0.24770  0.63730  0.74790  Biso   1.000  C
  H105     1.0000 0.22390  0.57970  0.71590  Biso   1.000  H
  C91      1.0000 0.54050  0.39190  0.89870  Biso   1.000  C
  H106     1.0000 0.52930  0.31960  0.92920  Biso   1.000  H
  H107     1.0000 0.55750  0.44980  0.95940  Biso   1.000  H
  C92      1.0000 0.73060  0.36440  0.97060  Biso   1.000  C
  H108     1.0000 0.75410  0.41860  0.01270  Biso   1.000  H
  C93      1.0000 0.69330  0.41760  0.89640  Biso   1.000  C
  H109     1.0000 0.69090  0.50910  0.88790  Biso   1.000  H
  C94      1.0000 0.20320  0.81120  0.63850  Biso   1.000  C
  C95      1.0000 0.51900  0.56540  0.75640  Biso   1.000  C
  H110     1.0000 0.53400  0.63660  0.80660  Biso   1.000  H
  H111     1.0000 0.49400  0.60350  0.69620  Biso   1.000  H
  C96      1.0000 0.66210  0.20460  0.84510  Biso   1.000  C
  H112     1.0000 0.63900  0.15010  0.80200  Biso   1.000  H
  C97      1.0000 0.57020  0.33800  0.84660  Biso   1.000  C
  H113     1.0000 0.55390  0.27530  0.78920  Biso   1.000  H
  H114     1.0000 0.59470  0.29160  0.90190  Biso   1.000  H
  C98      1.0000 0.77160  0.17330  0.06160  Biso   1.000  C
  C99      1.0000 0.61830  0.39480  0.74980  Biso   1.000  C
  H115     1.0000 0.62650  0.46670  0.71210  Biso   1.000  H
  H116     1.0000 0.60360  0.32760  0.69500  Biso   1.000  H
  C100     1.0000 0.43060  0.50890  0.98790  Biso   1.000  C
  H117     1.0000 0.44730  0.57660  0.03970  Biso   1.000  H
  H118     1.0000 0.42050  0.44480  0.02830  Biso   1.000  H
  C101     1.0000 0.73390  0.22830  0.98390  Biso   1.000  C
  C102     1.0000 0.32190  0.68010  0.87220  Biso   1.000  C
  C103     1.0000 0.70080  0.15000  0.92310  Biso   1.000  C
  H119     1.0000 0.70330  0.05860  0.93260  Biso   1.000  H
  C104     1.0000 0.47560  0.53670  0.87450  Biso   1.000  C
  H120     1.0000 0.49500  0.60190  0.92590  Biso   1.000  H
