data_image0
_cell_length_a       12.1065
_cell_length_b       12.717
_cell_length_c       16.224
_cell_angle_alpha    79.35
_cell_angle_beta     89.029
_cell_angle_gamma    78.237

_symmetry_space_group_name_H-M    "P 1"
_symmetry_int_tables_number       1

loop_
  _symmetry_equiv_pos_as_xyz
  'x, y, z'

loop_
  _atom_site_label
  _atom_site_occupancy
  _atom_site_fract_x
  _atom_site_fract_y
  _atom_site_fract_z
  _atom_site_thermal_displace_type
  _atom_site_B_iso_or_equiv
  _atom_site_type_symbol
  Fe1      1.0000 0.86512  0.49770  0.24390  Biso   1.000  Fe
  C1       1.0000 0.09580  0.64380  0.39750  Biso   1.000  C
  C2       1.0000 0.14540  0.59130  0.47550  Biso   1.000  C
  H1       1.0000 0.13460  0.51990  0.49860  Biso   1.000  H
  C3       1.0000 0.21030  0.64160  0.51980  Biso   1.000  C
  H2       1.0000 0.24290  0.60450  0.57270  Biso   1.000  H
  C4       1.0000 0.22770  0.74600  0.48700  Biso   1.000  C
  C5       1.0000 0.18130  0.79870  0.40860  Biso   1.000  C
  H3       1.0000 0.19420  0.86910  0.38490  Biso   1.000  H
  C6       1.0000 0.11610  0.74810  0.36520  Biso   1.000  C
  H4       1.0000 0.08420  0.78530  0.31200  Biso   1.000  H
  B1       1.0000 0.01620  0.59020  0.34640  Biso   1.000  B
  O1       1.0000 0.02930  0.47140  0.38090  Biso   1.000  O
  N1       1.0000 0.97060  0.42070  0.33360  Biso   1.000  N
  C7       1.0000 0.99670  0.31490  0.34570  Biso   1.000  C
  C8       1.0000 0.93720  0.27130  0.28670  Biso   1.000  C
  N2       1.0000 0.87960  0.34940  0.23020  Biso   1.000  N
  O2       1.0000 0.81420  0.31630  0.17470  Biso   1.000  O
  B2       1.0000 0.71410  0.40330  0.14180  Biso   1.000  B
  O3       1.0000 0.05020  0.60970  0.25620  Biso   1.000  O
  N3       1.0000 0.97800  0.58020  0.20400  Biso   1.000  N
  C9       1.0000 0.97450  0.62770  0.12560  Biso   1.000  C
  C10      1.0000 0.88790  0.59800  0.07810  Biso   1.000  C
  N4       1.0000 0.82830  0.53910  0.12710  Biso   1.000  N
  O4       1.0000 0.75030  0.49860  0.08690  Biso   1.000  O
  O5       1.0000 0.89580  0.64800  0.35430  Biso   1.000  O
  N5       1.0000 0.82020  0.60200  0.31630  Biso   1.000  N
  C11      1.0000 0.71720  0.61690  0.34400  Biso   1.000  C
  C12      1.0000 0.64920  0.55890  0.30390  Biso   1.000  C
  N6       1.0000 0.70740  0.49500  0.25810  Biso   1.000  N
  O6       1.0000 0.64800  0.44200  0.21320  Biso   1.000  O
  C13      1.0000 0.63230  0.35500  0.08820  Biso   1.000  C
  C14      1.0000 0.63510  0.37430  0.00060  Biso   1.000  C
  H5       1.0000 0.68640  0.41640  0.97370  Biso   1.000  H
  C15      1.0000 0.56680  0.33510  0.95110  Biso   1.000  C
  H6       1.0000 0.57260  0.35010  0.89180  Biso   1.000  H
  C16      1.0000 0.48970  0.27390  0.98770  Biso   1.000  C
  C17      1.0000 0.48290  0.25450  0.07510  Biso   1.000  C
  H7       1.0000 0.43000  0.21400  0.10160  Biso   1.000  H
  C18      1.0000 0.55280  0.29370  0.12350  Biso   1.000  C
  H8       1.0000 0.54680  0.27870  0.18280  Biso   1.000  H
  C19      1.0000 0.41720  0.22750  0.93660  Biso   1.000  C
  O7       1.0000 0.44530  0.23900  0.85540  Biso   1.000  O
  H9       1.0000 0.40310  0.21150  0.82920  Biso   1.000  H
  O8       1.0000 0.33770  0.18760  0.96410  Biso   1.000  O
  C20      1.0000 0.64400  0.35070  0.08450  Biso   1.000  C
  C21      1.0000 0.59210  0.40820  0.00910  Biso   1.000  C
  H10      1.0000 0.60060  0.48130  0.98980  Biso   1.000  H
  C22      1.0000 0.52810  0.36150  0.96140  Biso   1.000  C
  H11      1.0000 0.49460  0.40230  0.90970  Biso   1.000  H
  C23      1.0000 0.51310  0.25550  0.98890  Biso   1.000  C
  C24      1.0000 0.56520  0.19550  0.06410  Biso   1.000  C
  H12      1.0000 0.55660  0.12250  0.08330  Biso   1.000  H
  C25      1.0000 0.62980  0.24340  0.11070  Biso   1.000  C
  H13      1.0000 0.66510  0.20200  0.16160  Biso   1.000  H
  C26      1.0000 0.44650  0.20390  0.93790  Biso   1.000  C
  O9       1.0000 0.42800  0.25100  0.85900  Biso   1.000  O
  H14      1.0000 0.38510  0.22070  0.83630  Biso   1.000  H
  O10      1.0000 0.40590  0.12490  0.96900  Biso   1.000  O
  C27      1.0000 0.47930  0.65990  0.36790  Biso   1.000  C
  H15      1.0000 0.40410  0.65120  0.38960  Biso   1.000  H
  H16      1.0000 0.47040  0.73230  0.33070  Biso   1.000  H
  C28      1.0000 0.52460  0.57010  0.31740  Biso   1.000  C
  H17      1.0000 0.50940  0.49960  0.34770  Biso   1.000  H
  H18      1.0000 0.48440  0.58760  0.26240  Biso   1.000  H
  C29      1.0000 0.55960  0.65450  0.44160  Biso   1.000  C
  H19      1.0000 0.52430  0.70730  0.47690  Biso   1.000  H
  H20      1.0000 0.57260  0.58040  0.47660  Biso   1.000  H
  C30      1.0000 0.67300  0.68080  0.41020  Biso   1.000  C
  H21      1.0000 0.66300  0.76000  0.38710  Biso   1.000  H
  H22      1.0000 0.72810  0.66280  0.45770  Biso   1.000  H
  C31      1.0000 0.96740  0.68940  0.94740  Biso   1.000  C
  H23      1.0000 0.03590  0.63400  0.94120  Biso   1.000  H
  H24      1.0000 0.94260  0.73090  0.89070  Biso   1.000  H
  C32      1.0000 0.87480  0.63120  0.98490  Biso   1.000  C
  H25      1.0000 0.80040  0.68040  0.97070  Biso   1.000  H
  H26      1.0000 0.87700  0.56550  0.95990  Biso   1.000  H
  C33      1.0000 0.99700  0.76630  0.99920  Biso   1.000  C
  H27      1.0000 0.92860  0.82160  0.00580  Biso   1.000  H
  H28      1.0000 0.05330  0.80500  0.96930  Biso   1.000  H
  C34      1.0000 0.04510  0.70700  0.08660  Biso   1.000  C
  H29      1.0000 0.12350  0.66750  0.08140  Biso   1.000  H
  H30      1.0000 0.04640  0.76130  0.12300  Biso   1.000  H
  C35      1.0000 0.99070  0.08720  0.37880  Biso   1.000  C
  H31      1.0000 0.93580  0.09950  0.42370  Biso   1.000  H
  H32      1.0000 0.00740  0.00820  0.37690  Biso   1.000  H
  C36      1.0000 0.93850  0.15260  0.29360  Biso   1.000  C
  H33      1.0000 0.98290  0.12490  0.24750  Biso   1.000  H
  H34      1.0000 0.86050  0.14180  0.28800  Biso   1.000  H
  C37      1.0000 0.09960  0.12250  0.39880  Biso   1.000  C
  H35      1.0000 0.15240  0.11470  0.35200  Biso   1.000  H
  H36      1.0000 0.13610  0.07380  0.45010  Biso   1.000  H
  C38      1.0000 0.07620  0.24130  0.41220  Biso   1.000  C
  H37      1.0000 0.04300  0.24500  0.46800  Biso   1.000  H
  H38      1.0000 0.14810  0.26700  0.41100  Biso   1.000  H
  O11      1.0000 0.32580  0.88750  0.50110  Biso   1.000  O
  O12      1.0000 0.32190  0.75370  0.61150  Biso   1.000  O
  H39      1.0000 0.36090  0.78890  0.63370  Biso   1.000  H
  C39      1.0000 0.29670  0.80210  0.53380  Biso   1.000  C
  Fe2      1.0000 0.13488  0.50230  0.75610  Biso   1.000  Fe
  C40      1.0000 0.90420  0.35620  0.60250  Biso   1.000  C
  C41      1.0000 0.85460  0.40870  0.52450  Biso   1.000  C
  H40      1.0000 0.86540  0.48010  0.50140  Biso   1.000  H
  C42      1.0000 0.78970  0.35840  0.48020  Biso   1.000  C
  H41      1.0000 0.75710  0.39550  0.42730  Biso   1.000  H
  C43      1.0000 0.77230  0.25400  0.51300  Biso   1.000  C
  C44      1.0000 0.81870  0.20130  0.59140  Biso   1.000  C
  H42      1.0000 0.80580  0.13090  0.61510  Biso   1.000  H
  C45      1.0000 0.88390  0.25190  0.63480  Biso   1.000  C
  H43      1.0000 0.91580  0.21470  0.68800  Biso   1.000  H
  B3       1.0000 0.98380  0.40980  0.65360  Biso   1.000  B
  O13      1.0000 0.97070  0.52860  0.61910  Biso   1.000  O
  N7       1.0000 0.02940  0.57930  0.66640  Biso   1.000  N
  C46      1.0000 0.00330  0.68510  0.65430  Biso   1.000  C
  C47      1.0000 0.06280  0.72870  0.71330  Biso   1.000  C
  N8       1.0000 0.12040  0.65060  0.76980  Biso   1.000  N
  O14      1.0000 0.18580  0.68370  0.82530  Biso   1.000  O
  B4       1.0000 0.28590  0.59670  0.85820  Biso   1.000  B
  O15      1.0000 0.94980  0.39030  0.74380  Biso   1.000  O
  N9       1.0000 0.02200  0.41980  0.79600  Biso   1.000  N
  C48      1.0000 0.02550  0.37230  0.87440  Biso   1.000  C
  C49      1.0000 0.11210  0.40200  0.92190  Biso   1.000  C
  N10      1.0000 0.17170  0.46090  0.87290  Biso   1.000  N
  O16      1.0000 0.24970  0.50140  0.91310  Biso   1.000  O
  O17      1.0000 0.10420  0.35200  0.64570  Biso   1.000  O
  N11      1.0000 0.17980  0.39800  0.68370  Biso   1.000  N
  C50      1.0000 0.28280  0.38310  0.65600  Biso   1.000  C
  C51      1.0000 0.35080  0.44110  0.69610  Biso   1.000  C
  N12      1.0000 0.29260  0.50500  0.74190  Biso   1.000  N
  O18      1.0000 0.35200  0.55800  0.78680  Biso   1.000  O
  C52      1.0000 0.36770  0.64500  0.91180  Biso   1.000  C
  C53      1.0000 0.36490  0.62570  0.99940  Biso   1.000  C
  H44      1.0000 0.31360  0.58360  0.02630  Biso   1.000  H
  C54      1.0000 0.43320  0.66490  0.04890  Biso   1.000  C
  H45      1.0000 0.42740  0.64990  0.10820  Biso   1.000  H
  C55      1.0000 0.51030  0.72610  0.01230  Biso   1.000  C
  C56      1.0000 0.51710  0.74550  0.92490  Biso   1.000  C
  H46      1.0000 0.57000  0.78600  0.89840  Biso   1.000  H
  C57      1.0000 0.44720  0.70630  0.87650  Biso   1.000  C
  H47      1.0000 0.45320  0.72130  0.81720  Biso   1.000  H
  C58      1.0000 0.58280  0.77250  0.06340  Biso   1.000  C
  O19      1.0000 0.55470  0.76100  0.14460  Biso   1.000  O
  H48      1.0000 0.59690  0.78850  0.17080  Biso   1.000  H
  O20      1.0000 0.66230  0.81240  0.03590  Biso   1.000  O
  C59      1.0000 0.35600  0.64930  0.91550  Biso   1.000  C
  C60      1.0000 0.40790  0.59180  0.99090  Biso   1.000  C
  H49      1.0000 0.39940  0.51870  0.01020  Biso   1.000  H
  C61      1.0000 0.47190  0.63850  0.03860  Biso   1.000  C
  H50      1.0000 0.50540  0.59770  0.09030  Biso   1.000  H
  C62      1.0000 0.48690  0.74450  0.01110  Biso   1.000  C
  C63      1.0000 0.43480  0.80450  0.93590  Biso   1.000  C
  H51      1.0000 0.44340  0.87750  0.91670  Biso   1.000  H
  C64      1.0000 0.37020  0.75660  0.88930  Biso   1.000  C
  H52      1.0000 0.33490  0.79800  0.83840  Biso   1.000  H
  C65      1.0000 0.55350  0.79610  0.06210  Biso   1.000  C
  O21      1.0000 0.57200  0.74900  0.14100  Biso   1.000  O
  H53      1.0000 0.61490  0.77930  0.16370  Biso   1.000  H
  O22      1.0000 0.59410  0.87510  0.03100  Biso   1.000  O
  C66      1.0000 0.52070  0.34010  0.63210  Biso   1.000  C
  H54      1.0000 0.59590  0.34880  0.61040  Biso   1.000  H
  H55      1.0000 0.52960  0.26770  0.66930  Biso   1.000  H
  C67      1.0000 0.47540  0.42990  0.68260  Biso   1.000  C
  H56      1.0000 0.49060  0.50040  0.65230  Biso   1.000  H
  H57      1.0000 0.51560  0.41240  0.73760  Biso   1.000  H
  C68      1.0000 0.44040  0.34550  0.55840  Biso   1.000  C
  H58      1.0000 0.47570  0.29270  0.52310  Biso   1.000  H
  H59      1.0000 0.42740  0.41960  0.52340  Biso   1.000  H
  C69      1.0000 0.32700  0.31920  0.58980  Biso   1.000  C
  H60      1.0000 0.33700  0.24000  0.61290  Biso   1.000  H
  H61      1.0000 0.27190  0.33720  0.54230  Biso   1.000  H
  C70      1.0000 0.03260  0.31060  0.05260  Biso   1.000  C
  H62      1.0000 0.96410  0.36600  0.05880  Biso   1.000  H
  H63      1.0000 0.05740  0.26910  0.10930  Biso   1.000  H
  C71      1.0000 0.12520  0.36880  0.01510  Biso   1.000  C
  H64      1.0000 0.19960  0.31960  0.02930  Biso   1.000  H
  H65      1.0000 0.12300  0.43450  0.04010  Biso   1.000  H
  C72      1.0000 0.00300  0.23370  0.00080  Biso   1.000  C
  H66      1.0000 0.07140  0.17840  0.99420  Biso   1.000  H
  H67      1.0000 0.94670  0.19500  0.03070  Biso   1.000  H
  C73      1.0000 0.95490  0.29300  0.91340  Biso   1.000  C
  H68      1.0000 0.87650  0.33250  0.91860  Biso   1.000  H
  H69      1.0000 0.95360  0.23870  0.87700  Biso   1.000  H
  C74      1.0000 0.00930  0.91280  0.62120  Biso   1.000  C
  H70      1.0000 0.06420  0.90050  0.57630  Biso   1.000  H
  H71      1.0000 0.99260  0.99180  0.62310  Biso   1.000  H
  C75      1.0000 0.06150  0.84740  0.70640  Biso   1.000  C
  H72      1.0000 0.01710  0.87510  0.75250  Biso   1.000  H
  H73      1.0000 0.13950  0.85820  0.71200  Biso   1.000  H
  C76      1.0000 0.90040  0.87750  0.60120  Biso   1.000  C
  H74      1.0000 0.84760  0.88530  0.64800  Biso   1.000  H
  H75      1.0000 0.86390  0.92620  0.54990  Biso   1.000  H
  C77      1.0000 0.92380  0.75870  0.58780  Biso   1.000  C
  H76      1.0000 0.95700  0.75500  0.53200  Biso   1.000  H
  H77      1.0000 0.85190  0.73300  0.58900  Biso   1.000  H
  O23      1.0000 0.67420  0.11250  0.49890  Biso   1.000  O
  O24      1.0000 0.67810  0.24630  0.38850  Biso   1.000  O
  H78      1.0000 0.63910  0.21110  0.36630  Biso   1.000  H
  C78      1.0000 0.70330  0.19790  0.46620  Biso   1.000  C
