data_image0
_cell_length_a       22.329
_cell_length_b       16.026
_cell_length_c       24.527
_cell_angle_alpha    90
_cell_angle_beta     104.369
_cell_angle_gamma    90

_symmetry_space_group_name_H-M    "P 1"
_symmetry_int_tables_number       1

loop_
  _symmetry_equiv_pos_as_xyz
  'x, y, z'

loop_
  _atom_site_label
  _atom_site_occupancy
  _atom_site_fract_x
  _atom_site_fract_y
  _atom_site_fract_z
  _atom_site_thermal_displace_type
  _atom_site_B_iso_or_equiv
  _atom_site_type_symbol
  N1       1.0000 0.93550  0.40630  0.02950  Biso   1.000  N
  H1       1.0000 0.91790  0.36310  0.01180  Biso   1.000  H
  C1       1.0000 0.98940  0.26120  0.92570  Biso   1.000  C
  C2       1.0000 0.99250  0.33020  0.11240  Biso   1.000  C
  C3       1.0000 0.97990  0.25080  0.09040  Biso   1.000  C
  H2       1.0000 0.96400  0.24540  0.05170  Biso   1.000  H
  C4       1.0000 0.98940  0.18060  0.12200  Biso   1.000  C
  H3       1.0000 0.98300  0.12740  0.10650  Biso   1.000  H
  C5       1.0000 0.01200  0.33570  0.16820  Biso   1.000  C
  H4       1.0000 0.02090  0.38850  0.18400  Biso   1.000  H
  C6       1.0000 0.00810  0.19370  0.17610  Biso   1.000  C
  H5       1.0000 0.01440  0.14650  0.19890  Biso   1.000  H
  C7       1.0000 0.03080  0.38000  0.95010  Biso   1.000  C
  C8       1.0000 0.76500  0.56510  0.81960  Biso   1.000  C
  C9       1.0000 0.79780  0.50230  0.76150  Biso   1.000  C
  C10      1.0000 0.72800  0.61320  0.85320  Biso   1.000  C
  C11      1.0000 0.65320  0.66690  0.87760  Biso   1.000  C
  H6       1.0000 0.61390  0.68440  0.87910  Biso   1.000  H
  C12      1.0000 0.80700  0.46720  0.70320  Biso   1.000  C
  C13      1.0000 0.76530  0.41820  0.67240  Biso   1.000  C
  H7       1.0000 0.72790  0.40920  0.68170  Biso   1.000  H
  C14      1.0000 0.50780  0.56800  0.56080  Biso   1.000  C
  H8       1.0000 0.49020  0.58640  0.52440  Biso   1.000  H
  C15      1.0000 0.53960  0.37940  0.75680  Biso   1.000  C
  C16      1.0000 0.52690  0.44530  0.67590  Biso   1.000  C
  C17      1.0000 0.52920  0.49960  0.63640  Biso   1.000  C
  C18      1.0000 0.55850  0.35010  0.81430  Biso   1.000  C
  C19      1.0000 0.52910  0.29810  0.83890  Biso   1.000  C
  H9       1.0000 0.49260  0.27500  0.81750  Biso   1.000  H
  C20      1.0000 0.61480  0.39420  0.84820  Biso   1.000  C
  H10      1.0000 0.63640  0.43390  0.83300  Biso   1.000  H
  C21      1.0000 0.60150  0.32100  0.92130  Biso   1.000  C
  H11      1.0000 0.61720  0.31220  0.95970  Biso   1.000  H
  C22      1.0000 0.62980  0.37290  0.89840  Biso   1.000  C
  H12      1.0000 0.66500  0.39750  0.92110  Biso   1.000  H
  C23      1.0000 0.86420  0.48900  0.69120  Biso   1.000  C
  H13      1.0000 0.89300  0.52490  0.71300  Biso   1.000  H
  C24      1.0000 0.87140  0.45200  0.64650  Biso   1.000  C
  H14      1.0000 0.90680  0.46460  0.63470  Biso   1.000  H
  N2       1.0000 0.01970  0.26970  0.20330  Biso   1.000  N
  N3       1.0000 0.06420  0.32360  0.98540  Biso   1.000  N
  N4       1.0000 0.03780  0.25160  0.96790  Biso   1.000  N
  H15      1.0000 0.05080  0.20420  0.98260  Biso   1.000  H
  N5       1.0000 0.84370  0.49930  0.80700  Biso   1.000  N
  N6       1.0000 0.74900  0.54400  0.76870  Biso   1.000  N
  N7       1.0000 0.82130  0.54050  0.84490  Biso   1.000  N
  N8       1.0000 0.66730  0.61870  0.83870  Biso   1.000  N
  N9       1.0000 0.92420  0.48660  0.01200  Biso   1.000  N
  N10      1.0000 0.70520  0.68510  0.91340  Biso   1.000  N
  H16      1.0000 0.70700  0.71530  0.94280  Biso   1.000  H
  N11      1.0000 0.98390  0.34360  0.91270  Biso   1.000  N
  N12      1.0000 0.75400  0.65400  0.90130  Biso   1.000  N
  N13      1.0000 0.57530  0.55790  0.64110  Biso   1.000  N
  N14      1.0000 0.55350  0.45170  0.73320  Biso   1.000  N
  N15      1.0000 0.54850  0.27460  0.89480  Biso   1.000  N
  N16      1.0000 0.50340  0.37240  0.66940  Biso   1.000  N
  H17      1.0000 0.48560  0.35360  0.63650  Biso   1.000  H
  N17      1.0000 0.50730  0.32610  0.71540  Biso   1.000  N
  N18      1.0000 0.56180  0.59500  0.59580  Biso   1.000  N
  H18      1.0000 0.58410  0.63430  0.58710  Biso   1.000  H
  N19      1.0000 0.48480  0.50830  0.58910  Biso   1.000  N
  N20      1.0000 0.77790  0.37820  0.62370  Biso   1.000  N
  Ag1      1.0000 0.15407  0.32879  0.04484  Biso   1.000  Ag
  Ag2      1.0000 0.57985  0.57521  0.77242  Biso   1.000  Ag
  Ag3      1.0000 0.66578  0.56896  0.70262  Biso   1.000  Ag
  Ag4      1.0000 0.86869  0.50429  0.93045  Biso   1.000  Ag
  Ag5      1.0000 0.92922  0.42554  0.83804  Biso   1.000  Ag
  C25      1.0000 0.83200  0.39800  0.61600  Biso   1.000  C
  H19      1.0000 0.84420  0.37210  0.58650  Biso   1.000  H
  C26      1.0000 0.97650  0.40510  0.07650  Biso   1.000  C
  C27      1.0000 0.96320  0.52920  0.05000  Biso   1.000  C
  N21      1.0000 0.99690  0.48360  0.09170  Biso   1.000  N
  N22      1.0000 0.06450  0.59370  0.97050  Biso   1.000  N
  H20      1.0000 0.08210  0.63690  0.98820  Biso   1.000  H
  C28      1.0000 0.01060  0.73880  0.07430  Biso   1.000  C
  C29      1.0000 0.00750  0.66980  0.88760  Biso   1.000  C
  C30      1.0000 0.02010  0.74920  0.90960  Biso   1.000  C
  H21      1.0000 0.03600  0.75460  0.94830  Biso   1.000  H
  C31      1.0000 0.01060  0.81940  0.87800  Biso   1.000  C
  H22      1.0000 0.01700  0.87260  0.89350  Biso   1.000  H
  C32      1.0000 0.98800  0.66430  0.83180  Biso   1.000  C
  H23      1.0000 0.97910  0.61150  0.81600  Biso   1.000  H
  C33      1.0000 0.99190  0.80630  0.82390  Biso   1.000  C
  H24      1.0000 0.98560  0.85350  0.80110  Biso   1.000  H
  C34      1.0000 0.96920  0.62000  0.04990  Biso   1.000  C
  C35      1.0000 0.23500  0.43490  0.18040  Biso   1.000  C
  C36      1.0000 0.20220  0.49770  0.23850  Biso   1.000  C
  C37      1.0000 0.27200  0.38680  0.14680  Biso   1.000  C
  C38      1.0000 0.34680  0.33310  0.12240  Biso   1.000  C
  H25      1.0000 0.38610  0.31560  0.12090  Biso   1.000  H
  C39      1.0000 0.19300  0.53280  0.29680  Biso   1.000  C
  C40      1.0000 0.23470  0.58180  0.32760  Biso   1.000  C
  H26      1.0000 0.27210  0.59080  0.31830  Biso   1.000  H
  C41      1.0000 0.49220  0.43200  0.43920  Biso   1.000  C
  H27      1.0000 0.50980  0.41360  0.47560  Biso   1.000  H
  C42      1.0000 0.46040  0.62060  0.24320  Biso   1.000  C
  C43      1.0000 0.47310  0.55470  0.32410  Biso   1.000  C
  C44      1.0000 0.47080  0.50040  0.36360  Biso   1.000  C
  C45      1.0000 0.44150  0.64990  0.18570  Biso   1.000  C
  C46      1.0000 0.47090  0.70190  0.16110  Biso   1.000  C
  H28      1.0000 0.50740  0.72500  0.18250  Biso   1.000  H
  C47      1.0000 0.38520  0.60580  0.15180  Biso   1.000  C
  H29      1.0000 0.36360  0.56610  0.16700  Biso   1.000  H
  C48      1.0000 0.39850  0.67900  0.07870  Biso   1.000  C
  H30      1.0000 0.38280  0.68780  0.04030  Biso   1.000  H
  C49      1.0000 0.37020  0.62710  0.10160  Biso   1.000  C
  H31      1.0000 0.33500  0.60250  0.07890  Biso   1.000  H
  C50      1.0000 0.13580  0.51100  0.30880  Biso   1.000  C
  H32      1.0000 0.10700  0.47510  0.28700  Biso   1.000  H
  C51      1.0000 0.12860  0.54800  0.35350  Biso   1.000  C
  H33      1.0000 0.09320  0.53540  0.36530  Biso   1.000  H
  N23      1.0000 0.98030  0.73030  0.79670  Biso   1.000  N
  N24      1.0000 0.93580  0.67640  0.01460  Biso   1.000  N
  N25      1.0000 0.96220  0.74840  0.03210  Biso   1.000  N
  H34      1.0000 0.94920  0.79580  0.01740  Biso   1.000  H
  N26      1.0000 0.15630  0.50070  0.19300  Biso   1.000  N
  N27      1.0000 0.25100  0.45600  0.23130  Biso   1.000  N
  N28      1.0000 0.17870  0.45950  0.15510  Biso   1.000  N
  N29      1.0000 0.33270  0.38130  0.16130  Biso   1.000  N
  N30      1.0000 0.07580  0.51340  0.98800  Biso   1.000  N
  N31      1.0000 0.29480  0.31490  0.08660  Biso   1.000  N
  H35      1.0000 0.29300  0.28470  0.05720  Biso   1.000  H
  N32      1.0000 0.01610  0.65640  0.08730  Biso   1.000  N
  N33      1.0000 0.24600  0.34600  0.09870  Biso   1.000  N
  N34      1.0000 0.42470  0.44210  0.35890  Biso   1.000  N
  N35      1.0000 0.44650  0.54830  0.26680  Biso   1.000  N
  N36      1.0000 0.45150  0.72540  0.10520  Biso   1.000  N
  N37      1.0000 0.49660  0.62760  0.33060  Biso   1.000  N
  H36      1.0000 0.51440  0.64640  0.36350  Biso   1.000  H
  N38      1.0000 0.49270  0.67390  0.28460  Biso   1.000  N
  N39      1.0000 0.43820  0.40500  0.40420  Biso   1.000  N
  H37      1.0000 0.41590  0.36570  0.41290  Biso   1.000  H
  N40      1.0000 0.51520  0.49170  0.41090  Biso   1.000  N
  N41      1.0000 0.22210  0.62180  0.37630  Biso   1.000  N
  Ag6      1.0000 0.84593  0.67121  0.95516  Biso   1.000  Ag
  Ag7      1.0000 0.42015  0.42479  0.22758  Biso   1.000  Ag
  Ag8      1.0000 0.33422  0.43104  0.29738  Biso   1.000  Ag
  Ag9      1.0000 0.13131  0.49571  0.06955  Biso   1.000  Ag
  Ag10     1.0000 0.07078  0.57446  0.16196  Biso   1.000  Ag
  C52      1.0000 0.16800  0.60200  0.38400  Biso   1.000  C
  H38      1.0000 0.15580  0.62790  0.41350  Biso   1.000  H
  C53      1.0000 0.02350  0.59490  0.92350  Biso   1.000  C
  C54      1.0000 0.03680  0.47080  0.95000  Biso   1.000  C
  N42      1.0000 0.00310  0.51640  0.90830  Biso   1.000  N
  N43      1.0000 0.06450  0.90630  0.47050  Biso   1.000  N
  H39      1.0000 0.08210  0.86310  0.48820  Biso   1.000  H
  C55      1.0000 0.01060  0.76120  0.57430  Biso   1.000  C
  C56      1.0000 0.00750  0.83020  0.38760  Biso   1.000  C
  C57      1.0000 0.02010  0.75080  0.40960  Biso   1.000  C
  H40      1.0000 0.03600  0.74540  0.44830  Biso   1.000  H
  C58      1.0000 0.01060  0.68060  0.37800  Biso   1.000  C
  H41      1.0000 0.01700  0.62740  0.39350  Biso   1.000  H
  C59      1.0000 0.98800  0.83570  0.33180  Biso   1.000  C
  H42      1.0000 0.97910  0.88850  0.31600  Biso   1.000  H
  C60      1.0000 0.99190  0.69370  0.32390  Biso   1.000  C
  H43      1.0000 0.98560  0.64650  0.30110  Biso   1.000  H
  C61      1.0000 0.96920  0.88000  0.54990  Biso   1.000  C
  C62      1.0000 0.23500  0.06510  0.68040  Biso   1.000  C
  C63      1.0000 0.20220  0.00230  0.73850  Biso   1.000  C
  C64      1.0000 0.27200  0.11320  0.64680  Biso   1.000  C
  C65      1.0000 0.34680  0.16690  0.62240  Biso   1.000  C
  H44      1.0000 0.38610  0.18440  0.62090  Biso   1.000  H
  C66      1.0000 0.19300  0.96720  0.79680  Biso   1.000  C
  C67      1.0000 0.23470  0.91820  0.82760  Biso   1.000  C
  H45      1.0000 0.27210  0.90920  0.81830  Biso   1.000  H
  C68      1.0000 0.49220  0.06800  0.93920  Biso   1.000  C
  H46      1.0000 0.50980  0.08640  0.97560  Biso   1.000  H
  C69      1.0000 0.46040  0.87940  0.74320  Biso   1.000  C
  C70      1.0000 0.47310  0.94530  0.82410  Biso   1.000  C
  C71      1.0000 0.47080  0.99960  0.86360  Biso   1.000  C
  C72      1.0000 0.44150  0.85010  0.68570  Biso   1.000  C
  C73      1.0000 0.47090  0.79810  0.66110  Biso   1.000  C
  H47      1.0000 0.50740  0.77500  0.68250  Biso   1.000  H
  C74      1.0000 0.38520  0.89420  0.65180  Biso   1.000  C
  H48      1.0000 0.36360  0.93390  0.66700  Biso   1.000  H
  C75      1.0000 0.39850  0.82100  0.57870  Biso   1.000  C
  H49      1.0000 0.38280  0.81220  0.54030  Biso   1.000  H
  C76      1.0000 0.37020  0.87290  0.60160  Biso   1.000  C
  H50      1.0000 0.33500  0.89750  0.57890  Biso   1.000  H
  C77      1.0000 0.13580  0.98900  0.80880  Biso   1.000  C
  H51      1.0000 0.10700  0.02490  0.78700  Biso   1.000  H
  C78      1.0000 0.12860  0.95200  0.85350  Biso   1.000  C
  H52      1.0000 0.09320  0.96460  0.86530  Biso   1.000  H
  N44      1.0000 0.98030  0.76970  0.29670  Biso   1.000  N
  N45      1.0000 0.93580  0.82360  0.51460  Biso   1.000  N
  N46      1.0000 0.96220  0.75160  0.53210  Biso   1.000  N
  H53      1.0000 0.94920  0.70420  0.51740  Biso   1.000  H
  N47      1.0000 0.15630  0.99930  0.69300  Biso   1.000  N
  N48      1.0000 0.25100  0.04400  0.73130  Biso   1.000  N
  N49      1.0000 0.17870  0.04050  0.65510  Biso   1.000  N
  N50      1.0000 0.33270  0.11870  0.66130  Biso   1.000  N
  N51      1.0000 0.07580  0.98660  0.48800  Biso   1.000  N
  N52      1.0000 0.29480  0.18510  0.58660  Biso   1.000  N
  H54      1.0000 0.29300  0.21530  0.55720  Biso   1.000  H
  N53      1.0000 0.01610  0.84360  0.58730  Biso   1.000  N
  N54      1.0000 0.24600  0.15400  0.59870  Biso   1.000  N
  N55      1.0000 0.42470  0.05790  0.85890  Biso   1.000  N
  N56      1.0000 0.44650  0.95170  0.76680  Biso   1.000  N
  N57      1.0000 0.45150  0.77460  0.60520  Biso   1.000  N
  N58      1.0000 0.49660  0.87240  0.83060  Biso   1.000  N
  H55      1.0000 0.51440  0.85360  0.86350  Biso   1.000  H
  N59      1.0000 0.49270  0.82610  0.78460  Biso   1.000  N
  N60      1.0000 0.43820  0.09500  0.90420  Biso   1.000  N
  H56      1.0000 0.41590  0.13430  0.91290  Biso   1.000  H
  N61      1.0000 0.51520  0.00830  0.91090  Biso   1.000  N
  N62      1.0000 0.22210  0.87820  0.87630  Biso   1.000  N
  Ag11     1.0000 0.84593  0.82879  0.45516  Biso   1.000  Ag
  Ag12     1.0000 0.42015  0.07521  0.72758  Biso   1.000  Ag
  Ag13     1.0000 0.33422  0.06896  0.79738  Biso   1.000  Ag
  Ag14     1.0000 0.13131  0.00429  0.56955  Biso   1.000  Ag
  Ag15     1.0000 0.07078  0.92554  0.66196  Biso   1.000  Ag
  C79      1.0000 0.16800  0.89800  0.88400  Biso   1.000  C
  H57      1.0000 0.15580  0.87210  0.91350  Biso   1.000  H
  C80      1.0000 0.02350  0.90510  0.42350  Biso   1.000  C
  C81      1.0000 0.03680  0.02920  0.45000  Biso   1.000  C
  N63      1.0000 0.00310  0.98360  0.40830  Biso   1.000  N
  N64      1.0000 0.93550  0.09370  0.52950  Biso   1.000  N
  H58      1.0000 0.91790  0.13690  0.51180  Biso   1.000  H
  C82      1.0000 0.98940  0.23880  0.42570  Biso   1.000  C
  C83      1.0000 0.99250  0.16980  0.61240  Biso   1.000  C
  C84      1.0000 0.97990  0.24920  0.59040  Biso   1.000  C
  H59      1.0000 0.96400  0.25460  0.55170  Biso   1.000  H
  C85      1.0000 0.98940  0.31940  0.62200  Biso   1.000  C
  H60      1.0000 0.98300  0.37260  0.60650  Biso   1.000  H
  C86      1.0000 0.01200  0.16430  0.66820  Biso   1.000  C
  H61      1.0000 0.02090  0.11150  0.68400  Biso   1.000  H
  C87      1.0000 0.00810  0.30630  0.67610  Biso   1.000  C
  H62      1.0000 0.01440  0.35350  0.69890  Biso   1.000  H
  C88      1.0000 0.03080  0.12000  0.45010  Biso   1.000  C
  C89      1.0000 0.76500  0.93490  0.31960  Biso   1.000  C
  C90      1.0000 0.79780  0.99770  0.26150  Biso   1.000  C
  C91      1.0000 0.72800  0.88680  0.35320  Biso   1.000  C
  C92      1.0000 0.65320  0.83310  0.37760  Biso   1.000  C
  H63      1.0000 0.61390  0.81560  0.37910  Biso   1.000  H
  C93      1.0000 0.80700  0.03280  0.20320  Biso   1.000  C
  C94      1.0000 0.76530  0.08180  0.17240  Biso   1.000  C
  H64      1.0000 0.72790  0.09080  0.18170  Biso   1.000  H
  C95      1.0000 0.50780  0.93200  0.06080  Biso   1.000  C
  H65      1.0000 0.49020  0.91360  0.02440  Biso   1.000  H
  C96      1.0000 0.53960  0.12060  0.25680  Biso   1.000  C
  C97      1.0000 0.52690  0.05470  0.17590  Biso   1.000  C
  C98      1.0000 0.52920  0.00040  0.13640  Biso   1.000  C
  C99      1.0000 0.55850  0.14990  0.31430  Biso   1.000  C
  C100     1.0000 0.52910  0.20190  0.33890  Biso   1.000  C
  H66      1.0000 0.49260  0.22500  0.31750  Biso   1.000  H
  C101     1.0000 0.61480  0.10580  0.34820  Biso   1.000  C
  H67      1.0000 0.63640  0.06610  0.33300  Biso   1.000  H
  C102     1.0000 0.60150  0.17900  0.42130  Biso   1.000  C
  H68      1.0000 0.61720  0.18780  0.45970  Biso   1.000  H
  C103     1.0000 0.62980  0.12710  0.39840  Biso   1.000  C
  H69      1.0000 0.66500  0.10250  0.42110  Biso   1.000  H
  C104     1.0000 0.86420  0.01100  0.19120  Biso   1.000  C
  H70      1.0000 0.89300  0.97510  0.21300  Biso   1.000  H
  C105     1.0000 0.87140  0.04800  0.14650  Biso   1.000  C
  H71      1.0000 0.90680  0.03540  0.13470  Biso   1.000  H
  N65      1.0000 0.01970  0.23030  0.70330  Biso   1.000  N
  N66      1.0000 0.06420  0.17640  0.48540  Biso   1.000  N
  N67      1.0000 0.03780  0.24840  0.46790  Biso   1.000  N
  H72      1.0000 0.05080  0.29580  0.48260  Biso   1.000  H
  N68      1.0000 0.84370  0.00070  0.30700  Biso   1.000  N
  N69      1.0000 0.74900  0.95600  0.26870  Biso   1.000  N
  N70      1.0000 0.82130  0.95950  0.34490  Biso   1.000  N
  N71      1.0000 0.66730  0.88130  0.33870  Biso   1.000  N
  N72      1.0000 0.92420  0.01340  0.51200  Biso   1.000  N
  N73      1.0000 0.70520  0.81490  0.41340  Biso   1.000  N
  H73      1.0000 0.70700  0.78470  0.44280  Biso   1.000  H
  N74      1.0000 0.98390  0.15640  0.41270  Biso   1.000  N
  N75      1.0000 0.75400  0.84600  0.40130  Biso   1.000  N
  N76      1.0000 0.57530  0.94210  0.14110  Biso   1.000  N
  N77      1.0000 0.55350  0.04830  0.23320  Biso   1.000  N
  N78      1.0000 0.54850  0.22540  0.39480  Biso   1.000  N
  N79      1.0000 0.50340  0.12760  0.16940  Biso   1.000  N
  H74      1.0000 0.48560  0.14640  0.13650  Biso   1.000  H
  N80      1.0000 0.50730  0.17390  0.21540  Biso   1.000  N
  N81      1.0000 0.56180  0.90500  0.09580  Biso   1.000  N
  H75      1.0000 0.58410  0.86570  0.08710  Biso   1.000  H
  N82      1.0000 0.48480  0.99170  0.08910  Biso   1.000  N
  N83      1.0000 0.77790  0.12180  0.12370  Biso   1.000  N
  Ag16     1.0000 0.15407  0.17121  0.54484  Biso   1.000  Ag
  Ag17     1.0000 0.57985  0.92479  0.27242  Biso   1.000  Ag
  Ag18     1.0000 0.66578  0.93104  0.20262  Biso   1.000  Ag
  Ag19     1.0000 0.86869  0.99571  0.43045  Biso   1.000  Ag
  Ag20     1.0000 0.92922  0.07446  0.33804  Biso   1.000  Ag
  C106     1.0000 0.83200  0.10200  0.11600  Biso   1.000  C
  H76      1.0000 0.84420  0.12790  0.08650  Biso   1.000  H
  C107     1.0000 0.97650  0.09490  0.57650  Biso   1.000  C
  C108     1.0000 0.96320  0.97080  0.55000  Biso   1.000  C
  N84      1.0000 0.99690  0.01640  0.59170  Biso   1.000  N
