data_image0
_cell_length_a       21.4911
_cell_length_b       23.2808
_cell_length_c       12.2729
_cell_angle_alpha    90
_cell_angle_beta     119.763
_cell_angle_gamma    90

_symmetry_space_group_name_H-M    "P 1"
_symmetry_int_tables_number       1

loop_
  _symmetry_equiv_pos_as_xyz
  'x, y, z'

loop_
  _atom_site_label
  _atom_site_occupancy
  _atom_site_fract_x
  _atom_site_fract_y
  _atom_site_fract_z
  _atom_site_thermal_displace_type
  _atom_site_B_iso_or_equiv
  _atom_site_type_symbol
  Co1      1.0000 0.21540  0.34170  0.22134  Biso   1.000  Co
  N1       1.0000 0.21530  0.25060  0.21940  Biso   1.000  N
  N2       1.0000 0.22750  0.21740  0.31830  Biso   1.000  N
  N3       1.0000 0.21330  0.16360  0.16710  Biso   1.000  N
  N4       1.0000 0.20740  0.11440  0.09060  Biso   1.000  N
  H1       1.0000 0.17440  0.12100  0.01100  Biso   1.000  H
  H2       1.0000 0.24980  0.10900  0.09580  Biso   1.000  H
  N5       1.0000 0.15290  0.34480  0.30950  Biso   1.000  N
  N6       1.0000 0.16420  0.31230  0.41200  Biso   1.000  N
  N7       1.0000 0.07780  0.36920  0.37160  Biso   1.000  N
  N8       1.0000 0.02050  0.39900  0.37110  Biso   1.000  N
  H3       1.0000 0.00230  0.37700  0.40790  Biso   1.000  H
  H4       1.0000 0.03700  0.43150  0.41420  Biso   1.000  H
  N9       1.0000 0.31210  0.34400  0.39940  Biso   1.000  N
  N10      1.0000 0.32360  0.31060  0.49740  Biso   1.000  N
  N11      1.0000 0.41500  0.36570  0.55230  Biso   1.000  N
  N12      1.0000 0.48150  0.39450  0.62100  Biso   1.000  N
  H5       1.0000 0.51390  0.37030  0.67610  Biso   1.000  H
  H6       1.0000 0.47630  0.42410  0.66150  Biso   1.000  H
  C1       1.0000 0.22460  0.16380  0.28450  Biso   1.000  C
  H7       1.0000 0.22960  0.13170  0.33320  Biso   1.000  H
  C2       1.0000 0.20760  0.21830  0.13100  Biso   1.000  C
  H8       1.0000 0.19930  0.23070  0.05280  Biso   1.000  H
  C3       1.0000 0.11980  0.32780  0.45040  Biso   1.000  C
  H9       1.0000 0.11760  0.31310  0.51890  Biso   1.000  H
  C4       1.0000 0.09900  0.37930  0.28850  Biso   1.000  C
  H10      1.0000 0.07890  0.40650  0.22480  Biso   1.000  H
  C5       1.0000 0.38630  0.32320  0.59080  Biso   1.000  C
  H11      1.0000 0.40790  0.30630  0.66990  Biso   1.000  H
  C6       1.0000 0.36680  0.37830  0.43570  Biso   1.000  C
  H12      1.0000 0.37110  0.40710  0.38720  Biso   1.000  H
  Co2      1.0000 0.28460  0.15830  0.77866  Biso   1.000  Co
  N13      1.0000 0.28470  0.24940  0.78060  Biso   1.000  N
  N14      1.0000 0.27250  0.28260  0.68170  Biso   1.000  N
  N15      1.0000 0.28670  0.33640  0.83290  Biso   1.000  N
  N16      1.0000 0.29260  0.38560  0.90940  Biso   1.000  N
  H13      1.0000 0.32560  0.37900  0.98900  Biso   1.000  H
  H14      1.0000 0.25020  0.39100  0.90420  Biso   1.000  H
  N17      1.0000 0.34710  0.15520  0.69050  Biso   1.000  N
  N18      1.0000 0.33580  0.18770  0.58800  Biso   1.000  N
  N19      1.0000 0.42220  0.13080  0.62840  Biso   1.000  N
  N20      1.0000 0.47950  0.10100  0.62890  Biso   1.000  N
  H15      1.0000 0.49770  0.12300  0.59210  Biso   1.000  H
  H16      1.0000 0.46300  0.06850  0.58580  Biso   1.000  H
  N21      1.0000 0.18790  0.15600  0.60060  Biso   1.000  N
  N22      1.0000 0.17640  0.18940  0.50260  Biso   1.000  N
  N23      1.0000 0.08500  0.13430  0.44770  Biso   1.000  N
  N24      1.0000 0.01850  0.10550  0.37900  Biso   1.000  N
  H17      1.0000 0.98610  0.12970  0.32390  Biso   1.000  H
  H18      1.0000 0.02370  0.07590  0.33850  Biso   1.000  H
  C7       1.0000 0.27540  0.33620  0.71550  Biso   1.000  C
  H19      1.0000 0.27040  0.36830  0.66680  Biso   1.000  H
  C8       1.0000 0.29240  0.28170  0.86900  Biso   1.000  C
  H20      1.0000 0.30070  0.26930  0.94720  Biso   1.000  H
  C9       1.0000 0.38020  0.17220  0.54960  Biso   1.000  C
  H21      1.0000 0.38240  0.18690  0.48110  Biso   1.000  H
  C10      1.0000 0.40100  0.12070  0.71150  Biso   1.000  C
  H22      1.0000 0.42110  0.09350  0.77520  Biso   1.000  H
  C11      1.0000 0.11370  0.17680  0.40920  Biso   1.000  C
  H23      1.0000 0.09210  0.19370  0.33010  Biso   1.000  H
  C12      1.0000 0.13320  0.12170  0.56430  Biso   1.000  C
  H24      1.0000 0.12890  0.09290  0.61280  Biso   1.000  H
  Co3      1.0000 0.25000  0.25000  0.50000  Biso   1.000  Co
  Co4      1.0000 0.71540  0.84170  0.22134  Biso   1.000  Co
  N25      1.0000 0.71530  0.75060  0.21940  Biso   1.000  N
  N26      1.0000 0.72750  0.71740  0.31830  Biso   1.000  N
  N27      1.0000 0.71330  0.66360  0.16710  Biso   1.000  N
  N28      1.0000 0.70740  0.61440  0.09060  Biso   1.000  N
  H25      1.0000 0.67440  0.62100  0.01100  Biso   1.000  H
  H26      1.0000 0.74980  0.60900  0.09580  Biso   1.000  H
  N29      1.0000 0.65290  0.84480  0.30950  Biso   1.000  N
  N30      1.0000 0.66420  0.81230  0.41200  Biso   1.000  N
  N31      1.0000 0.57780  0.86920  0.37160  Biso   1.000  N
  N32      1.0000 0.52050  0.89900  0.37110  Biso   1.000  N
  H27      1.0000 0.50230  0.87700  0.40790  Biso   1.000  H
  H28      1.0000 0.53700  0.93150  0.41420  Biso   1.000  H
  N33      1.0000 0.81210  0.84400  0.39940  Biso   1.000  N
  N34      1.0000 0.82360  0.81060  0.49740  Biso   1.000  N
  N35      1.0000 0.91500  0.86570  0.55230  Biso   1.000  N
  N36      1.0000 0.98150  0.89450  0.62100  Biso   1.000  N
  H29      1.0000 0.01390  0.87030  0.67610  Biso   1.000  H
  H30      1.0000 0.97630  0.92410  0.66150  Biso   1.000  H
  C13      1.0000 0.72460  0.66380  0.28450  Biso   1.000  C
  H31      1.0000 0.72960  0.63170  0.33320  Biso   1.000  H
  C14      1.0000 0.70760  0.71830  0.13100  Biso   1.000  C
  H32      1.0000 0.69930  0.73070  0.05280  Biso   1.000  H
  C15      1.0000 0.61980  0.82780  0.45040  Biso   1.000  C
  H33      1.0000 0.61760  0.81310  0.51890  Biso   1.000  H
  C16      1.0000 0.59900  0.87930  0.28850  Biso   1.000  C
  H34      1.0000 0.57890  0.90650  0.22480  Biso   1.000  H
  C17      1.0000 0.88630  0.82320  0.59080  Biso   1.000  C
  H35      1.0000 0.90790  0.80630  0.66990  Biso   1.000  H
  C18      1.0000 0.86680  0.87830  0.43570  Biso   1.000  C
  H36      1.0000 0.87110  0.90710  0.38720  Biso   1.000  H
  Co5      1.0000 0.78460  0.65830  0.77866  Biso   1.000  Co
  N37      1.0000 0.78470  0.74940  0.78060  Biso   1.000  N
  N38      1.0000 0.77250  0.78260  0.68170  Biso   1.000  N
  N39      1.0000 0.78670  0.83640  0.83290  Biso   1.000  N
  N40      1.0000 0.79260  0.88560  0.90940  Biso   1.000  N
  H37      1.0000 0.82560  0.87900  0.98900  Biso   1.000  H
  H38      1.0000 0.75020  0.89100  0.90420  Biso   1.000  H
  N41      1.0000 0.84710  0.65520  0.69050  Biso   1.000  N
  N42      1.0000 0.83580  0.68770  0.58800  Biso   1.000  N
  N43      1.0000 0.92220  0.63080  0.62840  Biso   1.000  N
  N44      1.0000 0.97950  0.60100  0.62890  Biso   1.000  N
  H39      1.0000 0.99770  0.62300  0.59210  Biso   1.000  H
  H40      1.0000 0.96300  0.56850  0.58580  Biso   1.000  H
  N45      1.0000 0.68790  0.65600  0.60060  Biso   1.000  N
  N46      1.0000 0.67640  0.68940  0.50260  Biso   1.000  N
  N47      1.0000 0.58500  0.63430  0.44770  Biso   1.000  N
  N48      1.0000 0.51850  0.60550  0.37900  Biso   1.000  N
  H41      1.0000 0.48610  0.62970  0.32390  Biso   1.000  H
  H42      1.0000 0.52370  0.57590  0.33850  Biso   1.000  H
  C19      1.0000 0.77540  0.83620  0.71550  Biso   1.000  C
  H43      1.0000 0.77040  0.86830  0.66680  Biso   1.000  H
  C20      1.0000 0.79240  0.78170  0.86900  Biso   1.000  C
  H44      1.0000 0.80070  0.76930  0.94720  Biso   1.000  H
  C21      1.0000 0.88020  0.67220  0.54960  Biso   1.000  C
  H45      1.0000 0.88240  0.68690  0.48110  Biso   1.000  H
  C22      1.0000 0.90100  0.62070  0.71150  Biso   1.000  C
  H46      1.0000 0.92110  0.59350  0.77520  Biso   1.000  H
  C23      1.0000 0.61370  0.67680  0.40920  Biso   1.000  C
  H47      1.0000 0.59210  0.69370  0.33010  Biso   1.000  H
  C24      1.0000 0.63320  0.62170  0.56430  Biso   1.000  C
  H48      1.0000 0.62890  0.59290  0.61280  Biso   1.000  H
  Co6      1.0000 0.75000  0.75000  0.50000  Biso   1.000  Co
  Co7      1.0000 0.78460  0.34170  0.77866  Biso   1.000  Co
  N49      1.0000 0.78470  0.25060  0.78060  Biso   1.000  N
  N50      1.0000 0.77250  0.21740  0.68170  Biso   1.000  N
  N51      1.0000 0.78670  0.16360  0.83290  Biso   1.000  N
  N52      1.0000 0.79260  0.11440  0.90940  Biso   1.000  N
  H49      1.0000 0.82560  0.12100  0.98900  Biso   1.000  H
  H50      1.0000 0.75020  0.10900  0.90420  Biso   1.000  H
  N53      1.0000 0.84710  0.34480  0.69050  Biso   1.000  N
  N54      1.0000 0.83580  0.31230  0.58800  Biso   1.000  N
  N55      1.0000 0.92220  0.36920  0.62840  Biso   1.000  N
  N56      1.0000 0.97950  0.39900  0.62890  Biso   1.000  N
  H51      1.0000 0.99770  0.37700  0.59210  Biso   1.000  H
  H52      1.0000 0.96300  0.43150  0.58580  Biso   1.000  H
  N57      1.0000 0.68790  0.34400  0.60060  Biso   1.000  N
  N58      1.0000 0.67640  0.31060  0.50260  Biso   1.000  N
  N59      1.0000 0.58500  0.36570  0.44770  Biso   1.000  N
  N60      1.0000 0.51850  0.39450  0.37900  Biso   1.000  N
  H53      1.0000 0.48610  0.37030  0.32390  Biso   1.000  H
  H54      1.0000 0.52370  0.42410  0.33850  Biso   1.000  H
  C25      1.0000 0.77540  0.16380  0.71550  Biso   1.000  C
  H55      1.0000 0.77040  0.13170  0.66680  Biso   1.000  H
  C26      1.0000 0.79240  0.21830  0.86900  Biso   1.000  C
  H56      1.0000 0.80070  0.23070  0.94720  Biso   1.000  H
  C27      1.0000 0.88020  0.32780  0.54960  Biso   1.000  C
  H57      1.0000 0.88240  0.31310  0.48110  Biso   1.000  H
  C28      1.0000 0.90100  0.37930  0.71150  Biso   1.000  C
  H58      1.0000 0.92110  0.40650  0.77520  Biso   1.000  H
  C29      1.0000 0.61370  0.32320  0.40920  Biso   1.000  C
  H59      1.0000 0.59210  0.30630  0.33010  Biso   1.000  H
  C30      1.0000 0.63320  0.37830  0.56430  Biso   1.000  C
  H60      1.0000 0.62890  0.40710  0.61280  Biso   1.000  H
  Co8      1.0000 0.71540  0.15830  0.22134  Biso   1.000  Co
  N61      1.0000 0.71530  0.24940  0.21940  Biso   1.000  N
  N62      1.0000 0.72750  0.28260  0.31830  Biso   1.000  N
  N63      1.0000 0.71330  0.33640  0.16710  Biso   1.000  N
  N64      1.0000 0.70740  0.38560  0.09060  Biso   1.000  N
  H61      1.0000 0.67440  0.37900  0.01100  Biso   1.000  H
  H62      1.0000 0.74980  0.39100  0.09580  Biso   1.000  H
  N65      1.0000 0.65290  0.15520  0.30950  Biso   1.000  N
  N66      1.0000 0.66420  0.18770  0.41200  Biso   1.000  N
  N67      1.0000 0.57780  0.13080  0.37160  Biso   1.000  N
  N68      1.0000 0.52050  0.10100  0.37110  Biso   1.000  N
  H63      1.0000 0.50230  0.12300  0.40790  Biso   1.000  H
  H64      1.0000 0.53700  0.06850  0.41420  Biso   1.000  H
  N69      1.0000 0.81210  0.15600  0.39940  Biso   1.000  N
  N70      1.0000 0.82360  0.18940  0.49740  Biso   1.000  N
  N71      1.0000 0.91500  0.13430  0.55230  Biso   1.000  N
  N72      1.0000 0.98150  0.10550  0.62100  Biso   1.000  N
  H65      1.0000 0.01390  0.12970  0.67610  Biso   1.000  H
  H66      1.0000 0.97630  0.07590  0.66150  Biso   1.000  H
  C31      1.0000 0.72460  0.33620  0.28450  Biso   1.000  C
  H67      1.0000 0.72960  0.36830  0.33320  Biso   1.000  H
  C32      1.0000 0.70760  0.28170  0.13100  Biso   1.000  C
  H68      1.0000 0.69930  0.26930  0.05280  Biso   1.000  H
  C33      1.0000 0.61980  0.17220  0.45040  Biso   1.000  C
  H69      1.0000 0.61760  0.18690  0.51890  Biso   1.000  H
  C34      1.0000 0.59900  0.12070  0.28850  Biso   1.000  C
  H70      1.0000 0.57890  0.09350  0.22480  Biso   1.000  H
  C35      1.0000 0.88630  0.17680  0.59080  Biso   1.000  C
  H71      1.0000 0.90790  0.19370  0.66990  Biso   1.000  H
  C36      1.0000 0.86680  0.12170  0.43570  Biso   1.000  C
  H72      1.0000 0.87110  0.09290  0.38720  Biso   1.000  H
  Co9      1.0000 0.75000  0.25000  0.50000  Biso   1.000  Co
  Co10     1.0000 0.28460  0.84170  0.77866  Biso   1.000  Co
  N73      1.0000 0.28470  0.75060  0.78060  Biso   1.000  N
  N74      1.0000 0.27250  0.71740  0.68170  Biso   1.000  N
  N75      1.0000 0.28670  0.66360  0.83290  Biso   1.000  N
  N76      1.0000 0.29260  0.61440  0.90940  Biso   1.000  N
  H73      1.0000 0.32560  0.62100  0.98900  Biso   1.000  H
  H74      1.0000 0.25020  0.60900  0.90420  Biso   1.000  H
  N77      1.0000 0.34710  0.84480  0.69050  Biso   1.000  N
  N78      1.0000 0.33580  0.81230  0.58800  Biso   1.000  N
  N79      1.0000 0.42220  0.86920  0.62840  Biso   1.000  N
  N80      1.0000 0.47950  0.89900  0.62890  Biso   1.000  N
  H75      1.0000 0.49770  0.87700  0.59210  Biso   1.000  H
  H76      1.0000 0.46300  0.93150  0.58580  Biso   1.000  H
  N81      1.0000 0.18790  0.84400  0.60060  Biso   1.000  N
  N82      1.0000 0.17640  0.81060  0.50260  Biso   1.000  N
  N83      1.0000 0.08500  0.86570  0.44770  Biso   1.000  N
  N84      1.0000 0.01850  0.89450  0.37900  Biso   1.000  N
  H77      1.0000 0.98610  0.87030  0.32390  Biso   1.000  H
  H78      1.0000 0.02370  0.92410  0.33850  Biso   1.000  H
  C37      1.0000 0.27540  0.66380  0.71550  Biso   1.000  C
  H79      1.0000 0.27040  0.63170  0.66680  Biso   1.000  H
  C38      1.0000 0.29240  0.71830  0.86900  Biso   1.000  C
  H80      1.0000 0.30070  0.73070  0.94720  Biso   1.000  H
  C39      1.0000 0.38020  0.82780  0.54960  Biso   1.000  C
  H81      1.0000 0.38240  0.81310  0.48110  Biso   1.000  H
  C40      1.0000 0.40100  0.87930  0.71150  Biso   1.000  C
  H82      1.0000 0.42110  0.90650  0.77520  Biso   1.000  H
  C41      1.0000 0.11370  0.82320  0.40920  Biso   1.000  C
  H83      1.0000 0.09210  0.80630  0.33010  Biso   1.000  H
  C42      1.0000 0.13320  0.87830  0.56430  Biso   1.000  C
  H84      1.0000 0.12890  0.90710  0.61280  Biso   1.000  H
  Co11     1.0000 0.21540  0.65830  0.22134  Biso   1.000  Co
  N85      1.0000 0.21530  0.74940  0.21940  Biso   1.000  N
  N86      1.0000 0.22750  0.78260  0.31830  Biso   1.000  N
  N87      1.0000 0.21330  0.83640  0.16710  Biso   1.000  N
  N88      1.0000 0.20740  0.88560  0.09060  Biso   1.000  N
  H85      1.0000 0.17440  0.87900  0.01100  Biso   1.000  H
  H86      1.0000 0.24980  0.89100  0.09580  Biso   1.000  H
  N89      1.0000 0.15290  0.65520  0.30950  Biso   1.000  N
  N90      1.0000 0.16420  0.68770  0.41200  Biso   1.000  N
  N91      1.0000 0.07780  0.63080  0.37160  Biso   1.000  N
  N92      1.0000 0.02050  0.60100  0.37110  Biso   1.000  N
  H87      1.0000 0.00230  0.62300  0.40790  Biso   1.000  H
  H88      1.0000 0.03700  0.56850  0.41420  Biso   1.000  H
  N93      1.0000 0.31210  0.65600  0.39940  Biso   1.000  N
  N94      1.0000 0.32360  0.68940  0.49740  Biso   1.000  N
  N95      1.0000 0.41500  0.63430  0.55230  Biso   1.000  N
  N96      1.0000 0.48150  0.60550  0.62100  Biso   1.000  N
  H89      1.0000 0.51390  0.62970  0.67610  Biso   1.000  H
  H90      1.0000 0.47630  0.57590  0.66150  Biso   1.000  H
  C43      1.0000 0.22460  0.83620  0.28450  Biso   1.000  C
  H91      1.0000 0.22960  0.86830  0.33320  Biso   1.000  H
  C44      1.0000 0.20760  0.78170  0.13100  Biso   1.000  C
  H92      1.0000 0.19930  0.76930  0.05280  Biso   1.000  H
  C45      1.0000 0.11980  0.67220  0.45040  Biso   1.000  C
  H93      1.0000 0.11760  0.68690  0.51890  Biso   1.000  H
  C46      1.0000 0.09900  0.62070  0.28850  Biso   1.000  C
  H94      1.0000 0.07890  0.59350  0.22480  Biso   1.000  H
  C47      1.0000 0.38630  0.67680  0.59080  Biso   1.000  C
  H95      1.0000 0.40790  0.69370  0.66990  Biso   1.000  H
  C48      1.0000 0.36680  0.62170  0.43570  Biso   1.000  C
  H96      1.0000 0.37110  0.59290  0.38720  Biso   1.000  H
  Co12     1.0000 0.25000  0.75000  0.50000  Biso   1.000  Co
