data_image0
_cell_length_a       8.1051
_cell_length_b       8.151
_cell_length_c       9.9003
_cell_angle_alpha    75.8518
_cell_angle_beta     82.3596
_cell_angle_gamma    76.9343

_symmetry_space_group_name_H-M    "P 1"
_symmetry_int_tables_number       1

loop_
  _symmetry_equiv_pos_as_xyz
  'x, y, z'

loop_
  _atom_site_label
  _atom_site_occupancy
  _atom_site_fract_x
  _atom_site_fract_y
  _atom_site_fract_z
  _atom_site_thermal_displace_type
  _atom_site_B_iso_or_equiv
  _atom_site_type_symbol
  Ti1      1.0000 0.78900  0.48020  0.08437  Biso   1.000  Ti
  O1       1.0000 0.21450  0.36410  0.79030  Biso   1.000  O
  O2       1.0000 0.31070  0.17190  0.66180  Biso   1.000  O
  O3       1.0000 0.33360  0.32910  0.01960  Biso   1.000  O
  O4       1.0000 0.87650  0.29950  0.23870  Biso   1.000  O
  O5       1.0000 0.07190  0.08370  0.33530  Biso   1.000  O
  O6       1.0000 0.77100  0.30410  0.01110  Biso   1.000  O
  C1       1.0000 0.40560  0.10670  0.89098  Biso   1.000  C
  C2       1.0000 0.41530  0.16740  0.00999  Biso   1.000  C
  C3       1.0000 0.50973  0.06069  0.11901  Biso   1.000  C
  H1       1.0000 0.51650  0.10310  0.20220  Biso   1.000  H
  C4       1.0000 0.30550  0.21980  0.77540  Biso   1.000  C
  C5       1.0000 0.98972  0.07623  0.11420  Biso   1.000  C
  C6       1.0000 0.88350  0.15470  0.00564  Biso   1.000  C
  C7       1.0000 0.89379  0.07850  0.89144  Biso   1.000  C
  H2       1.0000 0.81960  0.13330  0.81560  Biso   1.000  H
  C8       1.0000 0.97880  0.15710  0.23530  Biso   1.000  C
  Ti2      1.0000 0.21100  0.51980  0.91563  Biso   1.000  Ti
  O7       1.0000 0.78550  0.63590  0.20970  Biso   1.000  O
  O8       1.0000 0.68930  0.82810  0.33820  Biso   1.000  O
  O9       1.0000 0.66640  0.67090  0.98040  Biso   1.000  O
  O10      1.0000 0.12350  0.70050  0.76130  Biso   1.000  O
  O11      1.0000 0.92810  0.91630  0.66470  Biso   1.000  O
  O12      1.0000 0.22900  0.69590  0.98890  Biso   1.000  O
  C9       1.0000 0.59440  0.89330  0.10902  Biso   1.000  C
  C10      1.0000 0.58470  0.83260  0.99001  Biso   1.000  C
  C11      1.0000 0.49027  0.93931  0.88099  Biso   1.000  C
  H3       1.0000 0.48350  0.89690  0.79780  Biso   1.000  H
  C12      1.0000 0.69450  0.78020  0.22460  Biso   1.000  C
  C13      1.0000 0.01028  0.92377  0.88580  Biso   1.000  C
  C14      1.0000 0.11650  0.84530  0.99436  Biso   1.000  C
  C15      1.0000 0.10621  0.92150  0.10856  Biso   1.000  C
  H4       1.0000 0.18040  0.86670  0.18440  Biso   1.000  H
  C16      1.0000 0.02120  0.84290  0.76470  Biso   1.000  C
  O13      1.0000 0.00000  0.50000  0.00000  Biso   1.000  O
