data_image0
_cell_length_a       14.042
_cell_length_b       26.3107
_cell_length_c       16.817
_cell_angle_alpha    90
_cell_angle_beta     105.548
_cell_angle_gamma    90

_symmetry_space_group_name_H-M    "P 1"
_symmetry_int_tables_number       1

loop_
  _symmetry_equiv_pos_as_xyz
  'x, y, z'

loop_
  _atom_site_label
  _atom_site_occupancy
  _atom_site_fract_x
  _atom_site_fract_y
  _atom_site_fract_z
  _atom_site_thermal_displace_type
  _atom_site_B_iso_or_equiv
  _atom_site_type_symbol
  C1       1.0000 0.25660  0.47150  0.55300  Biso   1.000  C
  H1       1.0000 0.20910  0.45170  0.51110  Biso   1.000  H
  H2       1.0000 0.25330  0.46080  0.60810  Biso   1.000  H
  H3       1.0000 0.24040  0.50770  0.54550  Biso   1.000  H
  Si1      1.0000 0.38170  0.46070  0.54270  Biso   1.000  Si
  C2       1.0000 0.40760  0.39370  0.55630  Biso   1.000  C
  H4       1.0000 0.36420  0.37060  0.52070  Biso   1.000  H
  C3       1.0000 0.48760  0.37370  0.61600  Biso   1.000  C
  C4       1.0000 0.50570  0.31880  0.62960  Biso   1.000  C
  C5       1.0000 0.58890  0.30270  0.68930  Biso   1.000  C
  H5       1.0000 0.63130  0.32800  0.72030  Biso   1.000  H
  N1       1.0000 0.61330  0.25460  0.70600  Biso   1.000  N
  C6       1.0000 0.55520  0.22010  0.65980  Biso   1.000  C
  H6       1.0000 0.57040  0.18520  0.67170  Biso   1.000  H
  C7       1.0000 0.47720  0.23120  0.59780  Biso   1.000  C
  H7       1.0000 0.44010  0.20490  0.56480  Biso   1.000  H
  C8       1.0000 0.45000  0.28260  0.58160  Biso   1.000  C
  H8       1.0000 0.39400  0.29160  0.53800  Biso   1.000  H
  C9       1.0000 0.65850  0.50910  0.71810  Biso   1.000  C
  H9       1.0000 0.71610  0.53140  0.72530  Biso   1.000  H
  H10      1.0000 0.63150  0.51240  0.76580  Biso   1.000  H
  H11      1.0000 0.67830  0.47380  0.71310  Biso   1.000  H
  Si2      1.0000 0.56440  0.52740  0.62450  Biso   1.000  Si
  C10      1.0000 0.53210  0.59400  0.62920  Biso   1.000  C
  H12      1.0000 0.57890  0.61910  0.62420  Biso   1.000  H
  C11      1.0000 0.44230  0.60990  0.63960  Biso   1.000  C
  C12      1.0000 0.41580  0.66390  0.64610  Biso   1.000  C
  C13      1.0000 0.34810  0.67500  0.69020  Biso   1.000  C
  H13      1.0000 0.31450  0.64740  0.70700  Biso   1.000  H
  N2       1.0000 0.32690  0.72100  0.71050  Biso   1.000  N
  C14      1.0000 0.36510  0.75920  0.68030  Biso   1.000  C
  H14      1.0000 0.35020  0.79270  0.69410  Biso   1.000  H
  C15      1.0000 0.42490  0.75300  0.63010  Biso   1.000  C
  H15      1.0000 0.44830  0.78170  0.60680  Biso   1.000  H
  C16      1.0000 0.45240  0.70310  0.61260  Biso   1.000  C
  H16      1.0000 0.49520  0.69770  0.57820  Biso   1.000  H
  Si3      1.0000 0.57700  0.47320  0.62090  Biso   1.000  Si
  C17      1.0000 0.57200  0.40500  0.63700  Biso   1.000  C
  H17      1.0000 0.63320  0.38860  0.66190  Biso   1.000  H
  Si4      1.0000 0.37300  0.51850  0.54040  Biso   1.000  Si
  C18      1.0000 0.36800  0.58060  0.58600  Biso   1.000  C
  H18      1.0000 0.30450  0.59620  0.57080  Biso   1.000  H
  C19      1.0000 0.26100  0.48400  0.54200  Biso   1.000  C
  H19      1.0000 0.20430  0.49860  0.50120  Biso   1.000  H
  H20      1.0000 0.26830  0.44800  0.52730  Biso   1.000  H
  H21      1.0000 0.25050  0.48560  0.59680  Biso   1.000  H
  C20      1.0000 0.62000  0.50200  0.72400  Biso   1.000  C
  H22      1.0000 0.69110  0.49540  0.74630  Biso   1.000  H
  H23      1.0000 0.60850  0.53870  0.71960  Biso   1.000  H
  H24      1.0000 0.58390  0.48710  0.76040  Biso   1.000  H
  O1       1.0000 0.46830  0.49190  0.61000  Biso   1.000  O
  O2       1.0000 0.38390  0.48160  0.45050  Biso   1.000  O
  Zn1      1.0000 0.73959  0.23359  0.78939  Biso   1.000  Zn
  I1       1.0000 0.83010  0.32520  0.87080  Biso   1.000  I
  I2       1.0000 0.76220  0.16060  0.87020  Biso   1.000  I
  I3       1.0000 0.80570  0.31220  0.88030  Biso   1.000  I
  I4       1.0000 0.69960  0.14630  0.84860  Biso   1.000  I
  I5       1.0000 0.80240  0.30350  0.88000  Biso   1.000  I
  I6       1.0000 0.69820  0.14270  0.84180  Biso   1.000  I
  C21      1.0000 0.75660  0.97150  0.55300  Biso   1.000  C
  H25      1.0000 0.70910  0.95170  0.51110  Biso   1.000  H
  H26      1.0000 0.75330  0.96080  0.60810  Biso   1.000  H
  H27      1.0000 0.74040  0.00770  0.54550  Biso   1.000  H
  Si5      1.0000 0.88170  0.96070  0.54270  Biso   1.000  Si
  C22      1.0000 0.90760  0.89370  0.55630  Biso   1.000  C
  H28      1.0000 0.86420  0.87060  0.52070  Biso   1.000  H
  C23      1.0000 0.98760  0.87370  0.61600  Biso   1.000  C
  C24      1.0000 0.00570  0.81880  0.62960  Biso   1.000  C
  C25      1.0000 0.08890  0.80270  0.68930  Biso   1.000  C
  H29      1.0000 0.13130  0.82800  0.72030  Biso   1.000  H
  N3       1.0000 0.11330  0.75460  0.70600  Biso   1.000  N
  C26      1.0000 0.05520  0.72010  0.65980  Biso   1.000  C
  H30      1.0000 0.07040  0.68520  0.67170  Biso   1.000  H
  C27      1.0000 0.97720  0.73120  0.59780  Biso   1.000  C
  H31      1.0000 0.94010  0.70490  0.56480  Biso   1.000  H
  C28      1.0000 0.95000  0.78260  0.58160  Biso   1.000  C
  H32      1.0000 0.89400  0.79160  0.53800  Biso   1.000  H
  C29      1.0000 0.15850  0.00910  0.71810  Biso   1.000  C
  H33      1.0000 0.21610  0.03140  0.72530  Biso   1.000  H
  H34      1.0000 0.13150  0.01240  0.76580  Biso   1.000  H
  H35      1.0000 0.17830  0.97380  0.71310  Biso   1.000  H
  Si6      1.0000 0.06440  0.02740  0.62450  Biso   1.000  Si
  C30      1.0000 0.03210  0.09400  0.62920  Biso   1.000  C
  H36      1.0000 0.07890  0.11910  0.62420  Biso   1.000  H
  C31      1.0000 0.94230  0.10990  0.63960  Biso   1.000  C
  C32      1.0000 0.91580  0.16390  0.64610  Biso   1.000  C
  C33      1.0000 0.84810  0.17500  0.69020  Biso   1.000  C
  H37      1.0000 0.81450  0.14740  0.70700  Biso   1.000  H
  N4       1.0000 0.82690  0.22100  0.71050  Biso   1.000  N
  C34      1.0000 0.86510  0.25920  0.68030  Biso   1.000  C
  H38      1.0000 0.85020  0.29270  0.69410  Biso   1.000  H
  C35      1.0000 0.92490  0.25300  0.63010  Biso   1.000  C
  H39      1.0000 0.94830  0.28170  0.60680  Biso   1.000  H
  C36      1.0000 0.95240  0.20310  0.61260  Biso   1.000  C
  H40      1.0000 0.99520  0.19770  0.57820  Biso   1.000  H
  Si7      1.0000 0.07700  0.97320  0.62090  Biso   1.000  Si
  C37      1.0000 0.07200  0.90500  0.63700  Biso   1.000  C
  H41      1.0000 0.13320  0.88860  0.66190  Biso   1.000  H
  Si8      1.0000 0.87300  0.01850  0.54040  Biso   1.000  Si
  C38      1.0000 0.86800  0.08060  0.58600  Biso   1.000  C
  H42      1.0000 0.80450  0.09620  0.57080  Biso   1.000  H
  C39      1.0000 0.76100  0.98400  0.54200  Biso   1.000  C
  H43      1.0000 0.70430  0.99860  0.50120  Biso   1.000  H
  H44      1.0000 0.76830  0.94800  0.52730  Biso   1.000  H
  H45      1.0000 0.75050  0.98560  0.59680  Biso   1.000  H
  C40      1.0000 0.12000  0.00200  0.72400  Biso   1.000  C
  H46      1.0000 0.19110  0.99540  0.74630  Biso   1.000  H
  H47      1.0000 0.10850  0.03870  0.71960  Biso   1.000  H
  H48      1.0000 0.08390  0.98710  0.76040  Biso   1.000  H
  O3       1.0000 0.96830  0.99190  0.61000  Biso   1.000  O
  O4       1.0000 0.88390  0.98160  0.45050  Biso   1.000  O
  Zn2      1.0000 0.23959  0.73359  0.78939  Biso   1.000  Zn
  I7       1.0000 0.33010  0.82520  0.87080  Biso   1.000  I
  I8       1.0000 0.26220  0.66060  0.87020  Biso   1.000  I
  I9       1.0000 0.30570  0.81220  0.88030  Biso   1.000  I
  I10      1.0000 0.19960  0.64630  0.84860  Biso   1.000  I
  I11      1.0000 0.30240  0.80350  0.88000  Biso   1.000  I
  I12      1.0000 0.19820  0.64270  0.84180  Biso   1.000  I
  C41      1.0000 0.74340  0.52850  0.44700  Biso   1.000  C
  H49      1.0000 0.79090  0.54830  0.48890  Biso   1.000  H
  H50      1.0000 0.74670  0.53920  0.39190  Biso   1.000  H
  H51      1.0000 0.75960  0.49230  0.45450  Biso   1.000  H
  Si9      1.0000 0.61830  0.53930  0.45730  Biso   1.000  Si
  C42      1.0000 0.59240  0.60630  0.44370  Biso   1.000  C
  H52      1.0000 0.63580  0.62940  0.47930  Biso   1.000  H
  C43      1.0000 0.51240  0.62630  0.38400  Biso   1.000  C
  C44      1.0000 0.49430  0.68120  0.37040  Biso   1.000  C
  C45      1.0000 0.41110  0.69730  0.31070  Biso   1.000  C
  H53      1.0000 0.36870  0.67200  0.27970  Biso   1.000  H
  N5       1.0000 0.38670  0.74540  0.29400  Biso   1.000  N
  C46      1.0000 0.44480  0.77990  0.34020  Biso   1.000  C
  H54      1.0000 0.42960  0.81480  0.32830  Biso   1.000  H
  C47      1.0000 0.52280  0.76880  0.40220  Biso   1.000  C
  H55      1.0000 0.55990  0.79510  0.43520  Biso   1.000  H
  C48      1.0000 0.55000  0.71740  0.41840  Biso   1.000  C
  H56      1.0000 0.60600  0.70840  0.46200  Biso   1.000  H
  C49      1.0000 0.34150  0.49090  0.28190  Biso   1.000  C
  H57      1.0000 0.28390  0.46860  0.27470  Biso   1.000  H
  H58      1.0000 0.36850  0.48760  0.23420  Biso   1.000  H
  H59      1.0000 0.32170  0.52620  0.28690  Biso   1.000  H
  Si10     1.0000 0.43560  0.47260  0.37550  Biso   1.000  Si
  C50      1.0000 0.46790  0.40600  0.37080  Biso   1.000  C
  H60      1.0000 0.42110  0.38090  0.37580  Biso   1.000  H
  C51      1.0000 0.55770  0.39010  0.36040  Biso   1.000  C
  C52      1.0000 0.58420  0.33610  0.35390  Biso   1.000  C
  C53      1.0000 0.65190  0.32500  0.30980  Biso   1.000  C
  H61      1.0000 0.68550  0.35260  0.29300  Biso   1.000  H
  N6       1.0000 0.67310  0.27900  0.28950  Biso   1.000  N
  C54      1.0000 0.63490  0.24080  0.31970  Biso   1.000  C
  H62      1.0000 0.64980  0.20730  0.30590  Biso   1.000  H
  C55      1.0000 0.57510  0.24700  0.36990  Biso   1.000  C
  H63      1.0000 0.55170  0.21830  0.39320  Biso   1.000  H
  C56      1.0000 0.54760  0.29690  0.38740  Biso   1.000  C
  H64      1.0000 0.50480  0.30230  0.42180  Biso   1.000  H
  Si11     1.0000 0.42300  0.52680  0.37910  Biso   1.000  Si
  C57      1.0000 0.42800  0.59500  0.36300  Biso   1.000  C
  H65      1.0000 0.36680  0.61140  0.33810  Biso   1.000  H
  Si12     1.0000 0.62700  0.48150  0.45960  Biso   1.000  Si
  C58      1.0000 0.63200  0.41940  0.41400  Biso   1.000  C
  H66      1.0000 0.69550  0.40380  0.42920  Biso   1.000  H
  C59      1.0000 0.73900  0.51600  0.45800  Biso   1.000  C
  H67      1.0000 0.79570  0.50140  0.49880  Biso   1.000  H
  H68      1.0000 0.73170  0.55200  0.47270  Biso   1.000  H
  H69      1.0000 0.74950  0.51440  0.40320  Biso   1.000  H
  C60      1.0000 0.38000  0.49800  0.27600  Biso   1.000  C
  H70      1.0000 0.30890  0.50460  0.25370  Biso   1.000  H
  H71      1.0000 0.39150  0.46130  0.28040  Biso   1.000  H
  H72      1.0000 0.41610  0.51290  0.23960  Biso   1.000  H
  O5       1.0000 0.53170  0.50810  0.39000  Biso   1.000  O
  O6       1.0000 0.61610  0.51840  0.54950  Biso   1.000  O
  Zn3      1.0000 0.26041  0.76641  0.21061  Biso   1.000  Zn
  I13      1.0000 0.16990  0.67480  0.12920  Biso   1.000  I
  I14      1.0000 0.23780  0.83940  0.12980  Biso   1.000  I
  I15      1.0000 0.19430  0.68780  0.11970  Biso   1.000  I
  I16      1.0000 0.30040  0.85370  0.15140  Biso   1.000  I
  I17      1.0000 0.19760  0.69650  0.12000  Biso   1.000  I
  I18      1.0000 0.30180  0.85730  0.15820  Biso   1.000  I
  C61      1.0000 0.24340  0.02850  0.44700  Biso   1.000  C
  H73      1.0000 0.29090  0.04830  0.48890  Biso   1.000  H
  H74      1.0000 0.24670  0.03920  0.39190  Biso   1.000  H
  H75      1.0000 0.25960  0.99230  0.45450  Biso   1.000  H
  Si13     1.0000 0.11830  0.03930  0.45730  Biso   1.000  Si
  C62      1.0000 0.09240  0.10630  0.44370  Biso   1.000  C
  H76      1.0000 0.13580  0.12940  0.47930  Biso   1.000  H
  C63      1.0000 0.01240  0.12630  0.38400  Biso   1.000  C
  C64      1.0000 0.99430  0.18120  0.37040  Biso   1.000  C
  C65      1.0000 0.91110  0.19730  0.31070  Biso   1.000  C
  H77      1.0000 0.86870  0.17200  0.27970  Biso   1.000  H
  N7       1.0000 0.88670  0.24540  0.29400  Biso   1.000  N
  C66      1.0000 0.94480  0.27990  0.34020  Biso   1.000  C
  H78      1.0000 0.92960  0.31480  0.32830  Biso   1.000  H
  C67      1.0000 0.02280  0.26880  0.40220  Biso   1.000  C
  H79      1.0000 0.05990  0.29510  0.43520  Biso   1.000  H
  C68      1.0000 0.05000  0.21740  0.41840  Biso   1.000  C
  H80      1.0000 0.10600  0.20840  0.46200  Biso   1.000  H
  C69      1.0000 0.84150  0.99090  0.28190  Biso   1.000  C
  H81      1.0000 0.78390  0.96860  0.27470  Biso   1.000  H
  H82      1.0000 0.86850  0.98760  0.23420  Biso   1.000  H
  H83      1.0000 0.82170  0.02620  0.28690  Biso   1.000  H
  Si14     1.0000 0.93560  0.97260  0.37550  Biso   1.000  Si
  C70      1.0000 0.96790  0.90600  0.37080  Biso   1.000  C
  H84      1.0000 0.92110  0.88090  0.37580  Biso   1.000  H
  C71      1.0000 0.05770  0.89010  0.36040  Biso   1.000  C
  C72      1.0000 0.08420  0.83610  0.35390  Biso   1.000  C
  C73      1.0000 0.15190  0.82500  0.30980  Biso   1.000  C
  H85      1.0000 0.18550  0.85260  0.29300  Biso   1.000  H
  N8       1.0000 0.17310  0.77900  0.28950  Biso   1.000  N
  C74      1.0000 0.13490  0.74080  0.31970  Biso   1.000  C
  H86      1.0000 0.14980  0.70730  0.30590  Biso   1.000  H
  C75      1.0000 0.07510  0.74700  0.36990  Biso   1.000  C
  H87      1.0000 0.05170  0.71830  0.39320  Biso   1.000  H
  C76      1.0000 0.04760  0.79690  0.38740  Biso   1.000  C
  H88      1.0000 0.00480  0.80230  0.42180  Biso   1.000  H
  Si15     1.0000 0.92300  0.02680  0.37910  Biso   1.000  Si
  C77      1.0000 0.92800  0.09500  0.36300  Biso   1.000  C
  H89      1.0000 0.86680  0.11140  0.33810  Biso   1.000  H
  Si16     1.0000 0.12700  0.98150  0.45960  Biso   1.000  Si
  C78      1.0000 0.13200  0.91940  0.41400  Biso   1.000  C
  H90      1.0000 0.19550  0.90380  0.42920  Biso   1.000  H
  C79      1.0000 0.23900  0.01600  0.45800  Biso   1.000  C
  H91      1.0000 0.29570  0.00140  0.49880  Biso   1.000  H
  H92      1.0000 0.23170  0.05200  0.47270  Biso   1.000  H
  H93      1.0000 0.24950  0.01440  0.40320  Biso   1.000  H
  C80      1.0000 0.88000  0.99800  0.27600  Biso   1.000  C
  H94      1.0000 0.80890  0.00460  0.25370  Biso   1.000  H
  H95      1.0000 0.89150  0.96130  0.28040  Biso   1.000  H
  H96      1.0000 0.91610  0.01290  0.23960  Biso   1.000  H
  O7       1.0000 0.03170  0.00810  0.39000  Biso   1.000  O
  O8       1.0000 0.11610  0.01840  0.54950  Biso   1.000  O
  Zn4      1.0000 0.76041  0.26641  0.21061  Biso   1.000  Zn
  I19      1.0000 0.66990  0.17480  0.12920  Biso   1.000  I
  I20      1.0000 0.73780  0.33940  0.12980  Biso   1.000  I
  I21      1.0000 0.69430  0.18780  0.11970  Biso   1.000  I
  I22      1.0000 0.80040  0.35370  0.15140  Biso   1.000  I
  I23      1.0000 0.69760  0.19650  0.12000  Biso   1.000  I
  I24      1.0000 0.80180  0.35730  0.15820  Biso   1.000  I
  C81      1.0000 0.74340  0.47150  0.94700  Biso   1.000  C
  H97      1.0000 0.79090  0.45170  0.98890  Biso   1.000  H
  H98      1.0000 0.74670  0.46080  0.89190  Biso   1.000  H
  H99      1.0000 0.75960  0.50770  0.95450  Biso   1.000  H
  Si17     1.0000 0.61830  0.46070  0.95730  Biso   1.000  Si
  C82      1.0000 0.59240  0.39370  0.94370  Biso   1.000  C
  H100     1.0000 0.63580  0.37060  0.97930  Biso   1.000  H
  C83      1.0000 0.51240  0.37370  0.88400  Biso   1.000  C
  C84      1.0000 0.49430  0.31880  0.87040  Biso   1.000  C
  C85      1.0000 0.41110  0.30270  0.81070  Biso   1.000  C
  H101     1.0000 0.36870  0.32800  0.77970  Biso   1.000  H
  N9       1.0000 0.38670  0.25460  0.79400  Biso   1.000  N
  C86      1.0000 0.44480  0.22010  0.84020  Biso   1.000  C
  H102     1.0000 0.42960  0.18520  0.82830  Biso   1.000  H
  C87      1.0000 0.52280  0.23120  0.90220  Biso   1.000  C
  H103     1.0000 0.55990  0.20490  0.93520  Biso   1.000  H
  C88      1.0000 0.55000  0.28260  0.91840  Biso   1.000  C
  H104     1.0000 0.60600  0.29160  0.96200  Biso   1.000  H
  C89      1.0000 0.34150  0.50910  0.78190  Biso   1.000  C
  H105     1.0000 0.28390  0.53140  0.77470  Biso   1.000  H
  H106     1.0000 0.36850  0.51240  0.73420  Biso   1.000  H
  H107     1.0000 0.32170  0.47380  0.78690  Biso   1.000  H
  Si18     1.0000 0.43560  0.52740  0.87550  Biso   1.000  Si
  C90      1.0000 0.46790  0.59400  0.87080  Biso   1.000  C
  H108     1.0000 0.42110  0.61910  0.87580  Biso   1.000  H
  C91      1.0000 0.55770  0.60990  0.86040  Biso   1.000  C
  C92      1.0000 0.58420  0.66390  0.85390  Biso   1.000  C
  C93      1.0000 0.65190  0.67500  0.80980  Biso   1.000  C
  H109     1.0000 0.68550  0.64740  0.79300  Biso   1.000  H
  N10      1.0000 0.67310  0.72100  0.78950  Biso   1.000  N
  C94      1.0000 0.63490  0.75920  0.81970  Biso   1.000  C
  H110     1.0000 0.64980  0.79270  0.80590  Biso   1.000  H
  C95      1.0000 0.57510  0.75300  0.86990  Biso   1.000  C
  H111     1.0000 0.55170  0.78170  0.89320  Biso   1.000  H
  C96      1.0000 0.54760  0.70310  0.88740  Biso   1.000  C
  H112     1.0000 0.50480  0.69770  0.92180  Biso   1.000  H
  Si19     1.0000 0.42300  0.47320  0.87910  Biso   1.000  Si
  C97      1.0000 0.42800  0.40500  0.86300  Biso   1.000  C
  H113     1.0000 0.36680  0.38860  0.83810  Biso   1.000  H
  Si20     1.0000 0.62700  0.51850  0.95960  Biso   1.000  Si
  C98      1.0000 0.63200  0.58060  0.91400  Biso   1.000  C
  H114     1.0000 0.69550  0.59620  0.92920  Biso   1.000  H
  C99      1.0000 0.73900  0.48400  0.95800  Biso   1.000  C
  H115     1.0000 0.79570  0.49860  0.99880  Biso   1.000  H
  H116     1.0000 0.73170  0.44800  0.97270  Biso   1.000  H
  H117     1.0000 0.74950  0.48560  0.90320  Biso   1.000  H
  C100     1.0000 0.38000  0.50200  0.77600  Biso   1.000  C
  H118     1.0000 0.30890  0.49540  0.75370  Biso   1.000  H
  H119     1.0000 0.39150  0.53870  0.78040  Biso   1.000  H
  H120     1.0000 0.41610  0.48710  0.73960  Biso   1.000  H
  O9       1.0000 0.53170  0.49190  0.89000  Biso   1.000  O
  O10      1.0000 0.61610  0.48160  0.04950  Biso   1.000  O
  Zn5      1.0000 0.26041  0.23359  0.71061  Biso   1.000  Zn
  I25      1.0000 0.16990  0.32520  0.62920  Biso   1.000  I
  I26      1.0000 0.23780  0.16060  0.62980  Biso   1.000  I
  I27      1.0000 0.19430  0.31220  0.61970  Biso   1.000  I
  I28      1.0000 0.30040  0.14630  0.65140  Biso   1.000  I
  I29      1.0000 0.19760  0.30350  0.62000  Biso   1.000  I
  I30      1.0000 0.30180  0.14270  0.65820  Biso   1.000  I
  C101     1.0000 0.24340  0.97150  0.94700  Biso   1.000  C
  H121     1.0000 0.29090  0.95170  0.98890  Biso   1.000  H
  H122     1.0000 0.24670  0.96080  0.89190  Biso   1.000  H
  H123     1.0000 0.25960  0.00770  0.95450  Biso   1.000  H
  Si21     1.0000 0.11830  0.96070  0.95730  Biso   1.000  Si
  C102     1.0000 0.09240  0.89370  0.94370  Biso   1.000  C
  H124     1.0000 0.13580  0.87060  0.97930  Biso   1.000  H
  C103     1.0000 0.01240  0.87370  0.88400  Biso   1.000  C
  C104     1.0000 0.99430  0.81880  0.87040  Biso   1.000  C
  C105     1.0000 0.91110  0.80270  0.81070  Biso   1.000  C
  H125     1.0000 0.86870  0.82800  0.77970  Biso   1.000  H
  N11      1.0000 0.88670  0.75460  0.79400  Biso   1.000  N
  C106     1.0000 0.94480  0.72010  0.84020  Biso   1.000  C
  H126     1.0000 0.92960  0.68520  0.82830  Biso   1.000  H
  C107     1.0000 0.02280  0.73120  0.90220  Biso   1.000  C
  H127     1.0000 0.05990  0.70490  0.93520  Biso   1.000  H
  C108     1.0000 0.05000  0.78260  0.91840  Biso   1.000  C
  H128     1.0000 0.10600  0.79160  0.96200  Biso   1.000  H
  C109     1.0000 0.84150  0.00910  0.78190  Biso   1.000  C
  H129     1.0000 0.78390  0.03140  0.77470  Biso   1.000  H
  H130     1.0000 0.86850  0.01240  0.73420  Biso   1.000  H
  H131     1.0000 0.82170  0.97380  0.78690  Biso   1.000  H
  Si22     1.0000 0.93560  0.02740  0.87550  Biso   1.000  Si
  C110     1.0000 0.96790  0.09400  0.87080  Biso   1.000  C
  H132     1.0000 0.92110  0.11910  0.87580  Biso   1.000  H
  C111     1.0000 0.05770  0.10990  0.86040  Biso   1.000  C
  C112     1.0000 0.08420  0.16390  0.85390  Biso   1.000  C
  C113     1.0000 0.15190  0.17500  0.80980  Biso   1.000  C
  H133     1.0000 0.18550  0.14740  0.79300  Biso   1.000  H
  N12      1.0000 0.17310  0.22100  0.78950  Biso   1.000  N
  C114     1.0000 0.13490  0.25920  0.81970  Biso   1.000  C
  H134     1.0000 0.14980  0.29270  0.80590  Biso   1.000  H
  C115     1.0000 0.07510  0.25300  0.86990  Biso   1.000  C
  H135     1.0000 0.05170  0.28170  0.89320  Biso   1.000  H
  C116     1.0000 0.04760  0.20310  0.88740  Biso   1.000  C
  H136     1.0000 0.00480  0.19770  0.92180  Biso   1.000  H
  Si23     1.0000 0.92300  0.97320  0.87910  Biso   1.000  Si
  C117     1.0000 0.92800  0.90500  0.86300  Biso   1.000  C
  H137     1.0000 0.86680  0.88860  0.83810  Biso   1.000  H
  Si24     1.0000 0.12700  0.01850  0.95960  Biso   1.000  Si
  C118     1.0000 0.13200  0.08060  0.91400  Biso   1.000  C
  H138     1.0000 0.19550  0.09620  0.92920  Biso   1.000  H
  C119     1.0000 0.23900  0.98400  0.95800  Biso   1.000  C
  H139     1.0000 0.29570  0.99860  0.99880  Biso   1.000  H
  H140     1.0000 0.23170  0.94800  0.97270  Biso   1.000  H
  H141     1.0000 0.24950  0.98560  0.90320  Biso   1.000  H
  C120     1.0000 0.88000  0.00200  0.77600  Biso   1.000  C
  H142     1.0000 0.80890  0.99540  0.75370  Biso   1.000  H
  H143     1.0000 0.89150  0.03870  0.78040  Biso   1.000  H
  H144     1.0000 0.91610  0.98710  0.73960  Biso   1.000  H
  O11      1.0000 0.03170  0.99190  0.89000  Biso   1.000  O
  O12      1.0000 0.11610  0.98160  0.04950  Biso   1.000  O
  Zn6      1.0000 0.76041  0.73359  0.71061  Biso   1.000  Zn
  I31      1.0000 0.66990  0.82520  0.62920  Biso   1.000  I
  I32      1.0000 0.73780  0.66060  0.62980  Biso   1.000  I
  I33      1.0000 0.69430  0.81220  0.61970  Biso   1.000  I
  I34      1.0000 0.80040  0.64630  0.65140  Biso   1.000  I
  I35      1.0000 0.69760  0.80350  0.62000  Biso   1.000  I
  I36      1.0000 0.80180  0.64270  0.65820  Biso   1.000  I
  C121     1.0000 0.25660  0.52850  0.05300  Biso   1.000  C
  H145     1.0000 0.20910  0.54830  0.01110  Biso   1.000  H
  H146     1.0000 0.25330  0.53920  0.10810  Biso   1.000  H
  H147     1.0000 0.24040  0.49230  0.04550  Biso   1.000  H
  Si25     1.0000 0.38170  0.53930  0.04270  Biso   1.000  Si
  C122     1.0000 0.40760  0.60630  0.05630  Biso   1.000  C
  H148     1.0000 0.36420  0.62940  0.02070  Biso   1.000  H
  C123     1.0000 0.48760  0.62630  0.11600  Biso   1.000  C
  C124     1.0000 0.50570  0.68120  0.12960  Biso   1.000  C
  C125     1.0000 0.58890  0.69730  0.18930  Biso   1.000  C
  H149     1.0000 0.63130  0.67200  0.22030  Biso   1.000  H
  N13      1.0000 0.61330  0.74540  0.20600  Biso   1.000  N
  C126     1.0000 0.55520  0.77990  0.15980  Biso   1.000  C
  H150     1.0000 0.57040  0.81480  0.17170  Biso   1.000  H
  C127     1.0000 0.47720  0.76880  0.09780  Biso   1.000  C
  H151     1.0000 0.44010  0.79510  0.06480  Biso   1.000  H
  C128     1.0000 0.45000  0.71740  0.08160  Biso   1.000  C
  H152     1.0000 0.39400  0.70840  0.03800  Biso   1.000  H
  C129     1.0000 0.65850  0.49090  0.21810  Biso   1.000  C
  H153     1.0000 0.71610  0.46860  0.22530  Biso   1.000  H
  H154     1.0000 0.63150  0.48760  0.26580  Biso   1.000  H
  H155     1.0000 0.67830  0.52620  0.21310  Biso   1.000  H
  Si26     1.0000 0.56440  0.47260  0.12450  Biso   1.000  Si
  C130     1.0000 0.53210  0.40600  0.12920  Biso   1.000  C
  H156     1.0000 0.57890  0.38090  0.12420  Biso   1.000  H
  C131     1.0000 0.44230  0.39010  0.13960  Biso   1.000  C
  C132     1.0000 0.41580  0.33610  0.14610  Biso   1.000  C
  C133     1.0000 0.34810  0.32500  0.19020  Biso   1.000  C
  H157     1.0000 0.31450  0.35260  0.20700  Biso   1.000  H
  N14      1.0000 0.32690  0.27900  0.21050  Biso   1.000  N
  C134     1.0000 0.36510  0.24080  0.18030  Biso   1.000  C
  H158     1.0000 0.35020  0.20730  0.19410  Biso   1.000  H
  C135     1.0000 0.42490  0.24700  0.13010  Biso   1.000  C
  H159     1.0000 0.44830  0.21830  0.10680  Biso   1.000  H
  C136     1.0000 0.45240  0.29690  0.11260  Biso   1.000  C
  H160     1.0000 0.49520  0.30230  0.07820  Biso   1.000  H
  Si27     1.0000 0.57700  0.52680  0.12090  Biso   1.000  Si
  C137     1.0000 0.57200  0.59500  0.13700  Biso   1.000  C
  H161     1.0000 0.63320  0.61140  0.16190  Biso   1.000  H
  Si28     1.0000 0.37300  0.48150  0.04040  Biso   1.000  Si
  C138     1.0000 0.36800  0.41940  0.08600  Biso   1.000  C
  H162     1.0000 0.30450  0.40380  0.07080  Biso   1.000  H
  C139     1.0000 0.26100  0.51600  0.04200  Biso   1.000  C
  H163     1.0000 0.20430  0.50140  0.00120  Biso   1.000  H
  H164     1.0000 0.26830  0.55200  0.02730  Biso   1.000  H
  H165     1.0000 0.25050  0.51440  0.09680  Biso   1.000  H
  C140     1.0000 0.62000  0.49800  0.22400  Biso   1.000  C
  H166     1.0000 0.69110  0.50460  0.24630  Biso   1.000  H
  H167     1.0000 0.60850  0.46130  0.21960  Biso   1.000  H
  H168     1.0000 0.58390  0.51290  0.26040  Biso   1.000  H
  O13      1.0000 0.46830  0.50810  0.11000  Biso   1.000  O
  O14      1.0000 0.38390  0.51840  0.95050  Biso   1.000  O
  Zn7      1.0000 0.73959  0.76641  0.28939  Biso   1.000  Zn
  I37      1.0000 0.83010  0.67480  0.37080  Biso   1.000  I
  I38      1.0000 0.76220  0.83940  0.37020  Biso   1.000  I
  I39      1.0000 0.80570  0.68780  0.38030  Biso   1.000  I
  I40      1.0000 0.69960  0.85370  0.34860  Biso   1.000  I
  I41      1.0000 0.80240  0.69650  0.38000  Biso   1.000  I
  I42      1.0000 0.69820  0.85730  0.34180  Biso   1.000  I
  C141     1.0000 0.75660  0.02850  0.05300  Biso   1.000  C
  H169     1.0000 0.70910  0.04830  0.01110  Biso   1.000  H
  H170     1.0000 0.75330  0.03920  0.10810  Biso   1.000  H
  H171     1.0000 0.74040  0.99230  0.04550  Biso   1.000  H
  Si29     1.0000 0.88170  0.03930  0.04270  Biso   1.000  Si
  C142     1.0000 0.90760  0.10630  0.05630  Biso   1.000  C
  H172     1.0000 0.86420  0.12940  0.02070  Biso   1.000  H
  C143     1.0000 0.98760  0.12630  0.11600  Biso   1.000  C
  C144     1.0000 0.00570  0.18120  0.12960  Biso   1.000  C
  C145     1.0000 0.08890  0.19730  0.18930  Biso   1.000  C
  H173     1.0000 0.13130  0.17200  0.22030  Biso   1.000  H
  N15      1.0000 0.11330  0.24540  0.20600  Biso   1.000  N
  C146     1.0000 0.05520  0.27990  0.15980  Biso   1.000  C
  H174     1.0000 0.07040  0.31480  0.17170  Biso   1.000  H
  C147     1.0000 0.97720  0.26880  0.09780  Biso   1.000  C
  H175     1.0000 0.94010  0.29510  0.06480  Biso   1.000  H
  C148     1.0000 0.95000  0.21740  0.08160  Biso   1.000  C
  H176     1.0000 0.89400  0.20840  0.03800  Biso   1.000  H
  C149     1.0000 0.15850  0.99090  0.21810  Biso   1.000  C
  H177     1.0000 0.21610  0.96860  0.22530  Biso   1.000  H
  H178     1.0000 0.13150  0.98760  0.26580  Biso   1.000  H
  H179     1.0000 0.17830  0.02620  0.21310  Biso   1.000  H
  Si30     1.0000 0.06440  0.97260  0.12450  Biso   1.000  Si
  C150     1.0000 0.03210  0.90600  0.12920  Biso   1.000  C
  H180     1.0000 0.07890  0.88090  0.12420  Biso   1.000  H
  C151     1.0000 0.94230  0.89010  0.13960  Biso   1.000  C
  C152     1.0000 0.91580  0.83610  0.14610  Biso   1.000  C
  C153     1.0000 0.84810  0.82500  0.19020  Biso   1.000  C
  H181     1.0000 0.81450  0.85260  0.20700  Biso   1.000  H
  N16      1.0000 0.82690  0.77900  0.21050  Biso   1.000  N
  C154     1.0000 0.86510  0.74080  0.18030  Biso   1.000  C
  H182     1.0000 0.85020  0.70730  0.19410  Biso   1.000  H
  C155     1.0000 0.92490  0.74700  0.13010  Biso   1.000  C
  H183     1.0000 0.94830  0.71830  0.10680  Biso   1.000  H
  C156     1.0000 0.95240  0.79690  0.11260  Biso   1.000  C
  H184     1.0000 0.99520  0.80230  0.07820  Biso   1.000  H
  Si31     1.0000 0.07700  0.02680  0.12090  Biso   1.000  Si
  C157     1.0000 0.07200  0.09500  0.13700  Biso   1.000  C
  H185     1.0000 0.13320  0.11140  0.16190  Biso   1.000  H
  Si32     1.0000 0.87300  0.98150  0.04040  Biso   1.000  Si
  C158     1.0000 0.86800  0.91940  0.08600  Biso   1.000  C
  H186     1.0000 0.80450  0.90380  0.07080  Biso   1.000  H
  C159     1.0000 0.76100  0.01600  0.04200  Biso   1.000  C
  H187     1.0000 0.70430  0.00140  0.00120  Biso   1.000  H
  H188     1.0000 0.76830  0.05200  0.02730  Biso   1.000  H
  H189     1.0000 0.75050  0.01440  0.09680  Biso   1.000  H
  C160     1.0000 0.12000  0.99800  0.22400  Biso   1.000  C
  H190     1.0000 0.19110  0.00460  0.24630  Biso   1.000  H
  H191     1.0000 0.10850  0.96130  0.21960  Biso   1.000  H
  H192     1.0000 0.08390  0.01290  0.26040  Biso   1.000  H
  O15      1.0000 0.96830  0.00810  0.11000  Biso   1.000  O
  O16      1.0000 0.88390  0.01840  0.95050  Biso   1.000  O
  Zn8      1.0000 0.23959  0.26641  0.28939  Biso   1.000  Zn
  I43      1.0000 0.33010  0.17480  0.37080  Biso   1.000  I
  I44      1.0000 0.26220  0.33940  0.37020  Biso   1.000  I
  I45      1.0000 0.30570  0.18780  0.38030  Biso   1.000  I
  I46      1.0000 0.19960  0.35370  0.34860  Biso   1.000  I
  I47      1.0000 0.30240  0.19650  0.38000  Biso   1.000  I
  I48      1.0000 0.19820  0.35730  0.34180  Biso   1.000  I
