data_image0
_cell_length_a       8.8767
_cell_length_b       8.6219
_cell_length_c       13.1457
_cell_angle_alpha    90
_cell_angle_beta     91.372
_cell_angle_gamma    90

_symmetry_space_group_name_H-M    "P 1"
_symmetry_int_tables_number       1

loop_
  _symmetry_equiv_pos_as_xyz
  'x, y, z'

loop_
  _atom_site_label
  _atom_site_occupancy
  _atom_site_fract_x
  _atom_site_fract_y
  _atom_site_fract_z
  _atom_site_thermal_displace_type
  _atom_site_B_iso_or_equiv
  _atom_site_type_symbol
  Zn1      1.0000 0.29619  0.65077  0.70738  Biso   1.000  Zn
  Cl1      1.0000 0.08197  0.69629  0.78287  Biso   1.000  Cl
  N1       1.0000 0.42820  0.52149  0.79905  Biso   1.000  N
  N2       1.0000 0.58290  0.33269  0.83555  Biso   1.000  N
  N3       1.0000 0.50640  0.40501  0.76148  Biso   1.000  N
  C1       1.0000 0.45370  0.52800  0.90253  Biso   1.000  C
  C2       1.0000 0.55290  0.40510  0.92635  Biso   1.000  C
  C3       1.0000 0.60350  0.37120  0.02495  Biso   1.000  C
  H1       1.0000 0.66870  0.28980  0.04080  Biso   1.000  H
  Zn2      1.0000 0.70381  0.15077  0.79262  Biso   1.000  Zn
  Cl2      1.0000 0.91803  0.19629  0.71713  Biso   1.000  Cl
  N4       1.0000 0.57180  0.02149  0.70095  Biso   1.000  N
  N5       1.0000 0.41710  0.83269  0.66445  Biso   1.000  N
  N6       1.0000 0.49360  0.90501  0.73852  Biso   1.000  N
  C4       1.0000 0.54630  0.02800  0.59747  Biso   1.000  C
  C5       1.0000 0.44710  0.90510  0.57365  Biso   1.000  C
  C6       1.0000 0.39650  0.87120  0.47505  Biso   1.000  C
  H2       1.0000 0.33130  0.78980  0.45920  Biso   1.000  H
  Zn3      1.0000 0.70381  0.34923  0.29262  Biso   1.000  Zn
  Cl3      1.0000 0.91803  0.30371  0.21713  Biso   1.000  Cl
  N7       1.0000 0.57180  0.47851  0.20095  Biso   1.000  N
  N8       1.0000 0.41710  0.66731  0.16445  Biso   1.000  N
  N9       1.0000 0.49360  0.59499  0.23852  Biso   1.000  N
  C7       1.0000 0.54630  0.47200  0.09747  Biso   1.000  C
  C8       1.0000 0.44710  0.59490  0.07365  Biso   1.000  C
  C9       1.0000 0.39650  0.62880  0.97505  Biso   1.000  C
  H3       1.0000 0.33130  0.71020  0.95920  Biso   1.000  H
  Zn4      1.0000 0.29619  0.84923  0.20738  Biso   1.000  Zn
  Cl4      1.0000 0.08197  0.80371  0.28287  Biso   1.000  Cl
  N10      1.0000 0.42820  0.97851  0.29905  Biso   1.000  N
  N11      1.0000 0.58290  0.16731  0.33555  Biso   1.000  N
  N12      1.0000 0.50640  0.09499  0.26148  Biso   1.000  N
  C10      1.0000 0.45370  0.97200  0.40253  Biso   1.000  C
  C11      1.0000 0.55290  0.09490  0.42635  Biso   1.000  C
  C12      1.0000 0.60350  0.12880  0.52495  Biso   1.000  C
  H4       1.0000 0.66870  0.21020  0.54080  Biso   1.000  H
