data_image0
_cell_length_a       10.6001
_cell_length_b       19.3309
_cell_length_c       7.931
_cell_angle_alpha    90
_cell_angle_beta     104.928
_cell_angle_gamma    90

_symmetry_space_group_name_H-M    "P 1"
_symmetry_int_tables_number       1

loop_
  _symmetry_equiv_pos_as_xyz
  'x, y, z'

loop_
  _atom_site_label
  _atom_site_occupancy
  _atom_site_fract_x
  _atom_site_fract_y
  _atom_site_fract_z
  _atom_site_thermal_displace_type
  _atom_site_B_iso_or_equiv
  _atom_site_type_symbol
  Mn1      1.0000 0.21135  0.19908  0.21798  Biso   1.000  Mn
  N1       1.0000 0.34280  0.22353  0.64520  Biso   1.000  N
  N2       1.0000 0.32600  0.18733  0.48820  Biso   1.000  N
  N3       1.0000 0.48970  0.14256  0.68250  Biso   1.000  N
  N4       1.0000 0.59520  0.09815  0.75500  Biso   1.000  N
  H1       1.0000 0.57240  0.06950  0.82980  Biso   1.000  H
  H2       1.0000 0.66360  0.12330  0.81090  Biso   1.000  H
  N5       1.0000 0.43230  0.09104  0.39880  Biso   1.000  N
  H3       1.0000 0.47360  0.05270  0.42670  Biso   1.000  H
  N6       1.0000 0.37200  0.11113  0.22400  Biso   1.000  N
  H4       1.0000 0.33390  0.07410  0.16290  Biso   1.000  H
  H5       1.0000 0.43310  0.12720  0.17350  Biso   1.000  H
  N7       1.0000 0.08180  0.22006  0.78800  Biso   1.000  N
  N8       1.0000 0.09270  0.18824  0.94980  Biso   1.000  N
  N9       1.0000 0.95900  0.12776  0.74850  Biso   1.000  N
  N10      1.0000 0.87500  0.07269  0.67540  Biso   1.000  N
  H6       1.0000 0.90930  0.04960  0.60080  Biso   1.000  H
  H7       1.0000 0.79770  0.08980  0.61890  Biso   1.000  H
  N11      1.0000 0.00670  0.08513  0.03950  Biso   1.000  N
  H8       1.0000 0.96590  0.04660  0.01250  Biso   1.000  H
  N12      1.0000 0.06880  0.10454  0.21510  Biso   1.000  N
  H9       1.0000 0.11420  0.06840  0.27180  Biso   1.000  H
  H10      1.0000 0.00780  0.11640  0.27070  Biso   1.000  H
  C1       1.0000 0.41720  0.13930  0.51690  Biso   1.000  C
  C2       1.0000 0.44030  0.19545  0.75680  Biso   1.000  C
  H11      1.0000 0.47200  0.20970  0.87190  Biso   1.000  H
  C3       1.0000 0.01820  0.13294  0.91950  Biso   1.000  C
  C4       1.0000 0.00050  0.18284  0.67280  Biso   1.000  C
  H12      1.0000 0.97450  0.19280  0.55420  Biso   1.000  H
  Mn2      1.0000 0.21135  0.30092  0.71798  Biso   1.000  Mn
  N13      1.0000 0.34280  0.27647  0.14520  Biso   1.000  N
  N14      1.0000 0.32600  0.31267  0.98820  Biso   1.000  N
  N15      1.0000 0.48970  0.35744  0.18250  Biso   1.000  N
  N16      1.0000 0.59520  0.40185  0.25500  Biso   1.000  N
  H13      1.0000 0.57240  0.43050  0.32980  Biso   1.000  H
  H14      1.0000 0.66360  0.37670  0.31090  Biso   1.000  H
  N17      1.0000 0.43230  0.40896  0.89880  Biso   1.000  N
  H15      1.0000 0.47360  0.44730  0.92670  Biso   1.000  H
  N18      1.0000 0.37200  0.38887  0.72400  Biso   1.000  N
  H16      1.0000 0.33390  0.42590  0.66290  Biso   1.000  H
  H17      1.0000 0.43310  0.37280  0.67350  Biso   1.000  H
  N19      1.0000 0.08180  0.27994  0.28800  Biso   1.000  N
  N20      1.0000 0.09270  0.31176  0.44980  Biso   1.000  N
  N21      1.0000 0.95900  0.37224  0.24850  Biso   1.000  N
  N22      1.0000 0.87500  0.42731  0.17540  Biso   1.000  N
  H18      1.0000 0.90930  0.45040  0.10080  Biso   1.000  H
  H19      1.0000 0.79770  0.41020  0.11890  Biso   1.000  H
  N23      1.0000 0.00670  0.41487  0.53950  Biso   1.000  N
  H20      1.0000 0.96590  0.45340  0.51250  Biso   1.000  H
  N24      1.0000 0.06880  0.39546  0.71510  Biso   1.000  N
  H21      1.0000 0.11420  0.43160  0.77180  Biso   1.000  H
  H22      1.0000 0.00780  0.38360  0.77070  Biso   1.000  H
  C5       1.0000 0.41720  0.36070  0.01690  Biso   1.000  C
  C6       1.0000 0.44030  0.30455  0.25680  Biso   1.000  C
  H23      1.0000 0.47200  0.29030  0.37190  Biso   1.000  H
  C7       1.0000 0.01820  0.36706  0.41950  Biso   1.000  C
  C8       1.0000 0.00050  0.31716  0.17280  Biso   1.000  C
  H24      1.0000 0.97450  0.30720  0.05420  Biso   1.000  H
  Mn3      1.0000 0.78865  0.69908  0.28202  Biso   1.000  Mn
  N25      1.0000 0.65720  0.72353  0.85480  Biso   1.000  N
  N26      1.0000 0.67400  0.68733  0.01180  Biso   1.000  N
  N27      1.0000 0.51030  0.64256  0.81750  Biso   1.000  N
  N28      1.0000 0.40480  0.59815  0.74500  Biso   1.000  N
  H25      1.0000 0.42760  0.56950  0.67020  Biso   1.000  H
  H26      1.0000 0.33640  0.62330  0.68910  Biso   1.000  H
  N29      1.0000 0.56770  0.59104  0.10120  Biso   1.000  N
  H27      1.0000 0.52640  0.55270  0.07330  Biso   1.000  H
  N30      1.0000 0.62800  0.61113  0.27600  Biso   1.000  N
  H28      1.0000 0.66610  0.57410  0.33710  Biso   1.000  H
  H29      1.0000 0.56690  0.62720  0.32650  Biso   1.000  H
  N31      1.0000 0.91820  0.72006  0.71200  Biso   1.000  N
  N32      1.0000 0.90730  0.68824  0.55020  Biso   1.000  N
  N33      1.0000 0.04100  0.62776  0.75150  Biso   1.000  N
  N34      1.0000 0.12500  0.57269  0.82460  Biso   1.000  N
  H30      1.0000 0.09070  0.54960  0.89920  Biso   1.000  H
  H31      1.0000 0.20230  0.58980  0.88110  Biso   1.000  H
  N35      1.0000 0.99330  0.58513  0.46050  Biso   1.000  N
  H32      1.0000 0.03410  0.54660  0.48750  Biso   1.000  H
  N36      1.0000 0.93120  0.60454  0.28490  Biso   1.000  N
  H33      1.0000 0.88580  0.56840  0.22820  Biso   1.000  H
  H34      1.0000 0.99220  0.61640  0.22930  Biso   1.000  H
  C9       1.0000 0.58280  0.63930  0.98310  Biso   1.000  C
  C10      1.0000 0.55970  0.69545  0.74320  Biso   1.000  C
  H35      1.0000 0.52800  0.70970  0.62810  Biso   1.000  H
  C11      1.0000 0.98180  0.63294  0.58050  Biso   1.000  C
  C12      1.0000 0.99950  0.68284  0.82720  Biso   1.000  C
  H36      1.0000 0.02550  0.69280  0.94580  Biso   1.000  H
  Mn4      1.0000 0.78865  0.80092  0.78202  Biso   1.000  Mn
  N37      1.0000 0.65720  0.77647  0.35480  Biso   1.000  N
  N38      1.0000 0.67400  0.81267  0.51180  Biso   1.000  N
  N39      1.0000 0.51030  0.85744  0.31750  Biso   1.000  N
  N40      1.0000 0.40480  0.90185  0.24500  Biso   1.000  N
  H37      1.0000 0.42760  0.93050  0.17020  Biso   1.000  H
  H38      1.0000 0.33640  0.87670  0.18910  Biso   1.000  H
  N41      1.0000 0.56770  0.90896  0.60120  Biso   1.000  N
  H39      1.0000 0.52640  0.94730  0.57330  Biso   1.000  H
  N42      1.0000 0.62800  0.88887  0.77600  Biso   1.000  N
  H40      1.0000 0.66610  0.92590  0.83710  Biso   1.000  H
  H41      1.0000 0.56690  0.87280  0.82650  Biso   1.000  H
  N43      1.0000 0.91820  0.77994  0.21200  Biso   1.000  N
  N44      1.0000 0.90730  0.81176  0.05020  Biso   1.000  N
  N45      1.0000 0.04100  0.87224  0.25150  Biso   1.000  N
  N46      1.0000 0.12500  0.92731  0.32460  Biso   1.000  N
  H42      1.0000 0.09070  0.95040  0.39920  Biso   1.000  H
  H43      1.0000 0.20230  0.91020  0.38110  Biso   1.000  H
  N47      1.0000 0.99330  0.91487  0.96050  Biso   1.000  N
  H44      1.0000 0.03410  0.95340  0.98750  Biso   1.000  H
  N48      1.0000 0.93120  0.89546  0.78490  Biso   1.000  N
  H45      1.0000 0.88580  0.93160  0.72820  Biso   1.000  H
  H46      1.0000 0.99220  0.88360  0.72930  Biso   1.000  H
  C13      1.0000 0.58280  0.86070  0.48310  Biso   1.000  C
  C14      1.0000 0.55970  0.80455  0.24320  Biso   1.000  C
  H47      1.0000 0.52800  0.79030  0.12810  Biso   1.000  H
  C15      1.0000 0.98180  0.86706  0.08050  Biso   1.000  C
  C16      1.0000 0.99950  0.81716  0.32720  Biso   1.000  C
  H48      1.0000 0.02550  0.80720  0.44580  Biso   1.000  H
