data_image0
_cell_length_a       42.4808
_cell_length_b       12.0108
_cell_length_c       19.2498
_cell_angle_alpha    90
_cell_angle_beta     115.588
_cell_angle_gamma    90

_symmetry_space_group_name_H-M    "P 1"
_symmetry_int_tables_number       1

loop_
  _symmetry_equiv_pos_as_xyz
  'x, y, z'

loop_
  _atom_site_label
  _atom_site_occupancy
  _atom_site_fract_x
  _atom_site_fract_y
  _atom_site_fract_z
  _atom_site_thermal_displace_type
  _atom_site_B_iso_or_equiv
  _atom_site_type_symbol
  U1       1.0000 0.37064  0.21098  0.09124  Biso   1.000  U
  O1       1.0000 0.38521  0.41310  0.09533  Biso   1.000  O
  O2       1.0000 0.39849  0.30700  0.01964  Biso   1.000  O
  O3       1.0000 0.38592  0.08200  0.00967  Biso   1.000  O
  O4       1.0000 0.35595  0.01140  0.06660  Biso   1.000  O
  O5       1.0000 0.41495  0.85780  0.27796  Biso   1.000  O
  O6       1.0000 0.45261  0.75060  0.37005  Biso   1.000  O
  O7       1.0000 0.34455  0.12940  0.17283  Biso   1.000  O
  O8       1.0000 0.35036  0.31020  0.17812  Biso   1.000  O
  O9       1.0000 0.37023  0.66980  0.28720  Biso   1.000  O
  O10      1.0000 0.31704  0.71890  0.20631  Biso   1.000  O
  O11      1.0000 0.15581  0.43260  0.17654  Biso   1.000  O
  O12      1.0000 0.20525  0.44030  0.28179  Biso   1.000  O
  C1       1.0000 0.41367  0.61110  0.05720  Biso   1.000  C
  C2       1.0000 0.39330  0.69530  0.01060  Biso   1.000  C
  H1       1.0000 0.37940  0.68080  0.95750  Biso   1.000  H
  C3       1.0000 0.39274  0.80130  0.03990  Biso   1.000  C
  C4       1.0000 0.41355  0.82160  0.11790  Biso   1.000  C
  H2       1.0000 0.41360  0.89350  0.13850  Biso   1.000  H
  C5       1.0000 0.43424  0.73760  0.16620  Biso   1.000  C
  C6       1.0000 0.43404  0.63430  0.13540  Biso   1.000  C
  H3       1.0000 0.44810  0.57700  0.16790  Biso   1.000  H
  C7       1.0000 0.41453  0.49730  0.02460  Biso   1.000  C
  H4       1.0000 0.40260  0.50280  0.96770  Biso   1.000  H
  H5       1.0000 0.43920  0.47820  0.03880  Biso   1.000  H
  C8       1.0000 0.39845  0.40190  0.04840  Biso   1.000  C
  C9       1.0000 0.36922  0.88880  0.98400  Biso   1.000  C
  H6       1.0000 0.37630  0.89890  0.94180  Biso   1.000  H
  H7       1.0000 0.34490  0.86120  0.96110  Biso   1.000  H
  C10      1.0000 0.37048  0.99950  0.02146  Biso   1.000  C
  C11      1.0000 0.45753  0.75970  0.25010  Biso   1.000  C
  H8       1.0000 0.47370  0.82090  0.25310  Biso   1.000  H
  H9       1.0000 0.47190  0.69240  0.27190  Biso   1.000  H
  C12      1.0000 0.43966  0.79050  0.30180  Biso   1.000  C
  C13      1.0000 0.30286  0.33060  0.24970  Biso   1.000  C
  C14      1.0000 0.32082  0.42650  0.28640  Biso   1.000  C
  H10      1.0000 0.34560  0.42500  0.31330  Biso   1.000  H
  C15      1.0000 0.30285  0.52450  0.28400  Biso   1.000  C
  C16      1.0000 0.26666  0.52540  0.24370  Biso   1.000  C
  H11      1.0000 0.25430  0.59210  0.24190  Biso   1.000  H
  C17      1.0000 0.24805  0.43100  0.20610  Biso   1.000  C
  C18      1.0000 0.26650  0.33410  0.20980  Biso   1.000  C
  H12      1.0000 0.25420  0.26890  0.18470  Biso   1.000  H
  C19      1.0000 0.32299  0.22540  0.25280  Biso   1.000  C
  H13      1.0000 0.30690  0.16120  0.24080  Biso   1.000  H
  H14      1.0000 0.34130  0.21540  0.30600  Biso   1.000  H
  C20      1.0000 0.34023  0.22320  0.19802  Biso   1.000  C
  C21      1.0000 0.32313  0.62920  0.31950  Biso   1.000  C
  H15      1.0000 0.34210  0.61220  0.37080  Biso   1.000  H
  H16      1.0000 0.30750  0.68500  0.32610  Biso   1.000  H
  C22      1.0000 0.33858  0.67640  0.26730  Biso   1.000  C
  C23      1.0000 0.20846  0.43810  0.16080  Biso   1.000  C
  H17      1.0000 0.20050  0.37490  0.12420  Biso   1.000  H
  H18      1.0000 0.20260  0.50760  0.13010  Biso   1.000  H
  C24      1.0000 0.18823  0.43640  0.20990  Biso   1.000  C
  U2       1.0000 0.12936  0.71098  0.40876  Biso   1.000  U
  O13      1.0000 0.11479  0.91310  0.40467  Biso   1.000  O
  O14      1.0000 0.10151  0.80700  0.48036  Biso   1.000  O
  O15      1.0000 0.11408  0.58200  0.49033  Biso   1.000  O
  O16      1.0000 0.14405  0.51140  0.43340  Biso   1.000  O
  O17      1.0000 0.08505  0.35780  0.22204  Biso   1.000  O
  O18      1.0000 0.04739  0.25060  0.12995  Biso   1.000  O
  O19      1.0000 0.15545  0.62940  0.32717  Biso   1.000  O
  O20      1.0000 0.14964  0.81020  0.32188  Biso   1.000  O
  O21      1.0000 0.12977  0.16980  0.21280  Biso   1.000  O
  O22      1.0000 0.18296  0.21890  0.29369  Biso   1.000  O
  O23      1.0000 0.34419  0.93260  0.32346  Biso   1.000  O
  O24      1.0000 0.29475  0.94030  0.21821  Biso   1.000  O
  C25      1.0000 0.08633  0.11110  0.44280  Biso   1.000  C
  C26      1.0000 0.10670  0.19530  0.48940  Biso   1.000  C
  H19      1.0000 0.12060  0.18080  0.54250  Biso   1.000  H
  C27      1.0000 0.10726  0.30130  0.46010  Biso   1.000  C
  C28      1.0000 0.08645  0.32160  0.38210  Biso   1.000  C
  H20      1.0000 0.08640  0.39350  0.36150  Biso   1.000  H
  C29      1.0000 0.06576  0.23760  0.33380  Biso   1.000  C
  C30      1.0000 0.06596  0.13430  0.36460  Biso   1.000  C
  H21      1.0000 0.05190  0.07700  0.33210  Biso   1.000  H
  C31      1.0000 0.08547  0.99730  0.47540  Biso   1.000  C
  H22      1.0000 0.09740  0.00280  0.53230  Biso   1.000  H
  H23      1.0000 0.06080  0.97820  0.46120  Biso   1.000  H
  C32      1.0000 0.10155  0.90190  0.45160  Biso   1.000  C
  C33      1.0000 0.13078  0.38880  0.51600  Biso   1.000  C
  H24      1.0000 0.12370  0.39890  0.55820  Biso   1.000  H
  H25      1.0000 0.15510  0.36120  0.53890  Biso   1.000  H
  C34      1.0000 0.12952  0.49950  0.47854  Biso   1.000  C
  C35      1.0000 0.04247  0.25970  0.24990  Biso   1.000  C
  H26      1.0000 0.02630  0.32090  0.24690  Biso   1.000  H
  H27      1.0000 0.02810  0.19240  0.22810  Biso   1.000  H
  C36      1.0000 0.06034  0.29050  0.19820  Biso   1.000  C
  C37      1.0000 0.19714  0.83060  0.25030  Biso   1.000  C
  C38      1.0000 0.17918  0.92650  0.21360  Biso   1.000  C
  H28      1.0000 0.15440  0.92500  0.18670  Biso   1.000  H
  C39      1.0000 0.19715  0.02450  0.21600  Biso   1.000  C
  C40      1.0000 0.23334  0.02540  0.25630  Biso   1.000  C
  H29      1.0000 0.24570  0.09210  0.25810  Biso   1.000  H
  C41      1.0000 0.25195  0.93100  0.29390  Biso   1.000  C
  C42      1.0000 0.23350  0.83410  0.29020  Biso   1.000  C
  H30      1.0000 0.24580  0.76890  0.31530  Biso   1.000  H
  C43      1.0000 0.17701  0.72540  0.24720  Biso   1.000  C
  H31      1.0000 0.19310  0.66120  0.25920  Biso   1.000  H
  H32      1.0000 0.15870  0.71540  0.19400  Biso   1.000  H
  C44      1.0000 0.15977  0.72320  0.30198  Biso   1.000  C
  C45      1.0000 0.17687  0.12920  0.18050  Biso   1.000  C
  H33      1.0000 0.15790  0.11220  0.12920  Biso   1.000  H
  H34      1.0000 0.19250  0.18500  0.17390  Biso   1.000  H
  C46      1.0000 0.16142  0.17640  0.23270  Biso   1.000  C
  C47      1.0000 0.29154  0.93810  0.33920  Biso   1.000  C
  H35      1.0000 0.29950  0.87490  0.37580  Biso   1.000  H
  H36      1.0000 0.29740  0.00760  0.36990  Biso   1.000  H
  C48      1.0000 0.31177  0.93640  0.29010  Biso   1.000  C
  U3       1.0000 0.87064  0.71098  0.09124  Biso   1.000  U
  O25      1.0000 0.88521  0.91310  0.09533  Biso   1.000  O
  O26      1.0000 0.89849  0.80700  0.01964  Biso   1.000  O
  O27      1.0000 0.88592  0.58200  0.00967  Biso   1.000  O
  O28      1.0000 0.85595  0.51140  0.06660  Biso   1.000  O
  O29      1.0000 0.91495  0.35780  0.27796  Biso   1.000  O
  O30      1.0000 0.95261  0.25060  0.37005  Biso   1.000  O
  O31      1.0000 0.84455  0.62940  0.17283  Biso   1.000  O
  O32      1.0000 0.85036  0.81020  0.17812  Biso   1.000  O
  O33      1.0000 0.87023  0.16980  0.28720  Biso   1.000  O
  O34      1.0000 0.81704  0.21890  0.20631  Biso   1.000  O
  O35      1.0000 0.65581  0.93260  0.17654  Biso   1.000  O
  O36      1.0000 0.70525  0.94030  0.28179  Biso   1.000  O
  C49      1.0000 0.91367  0.11110  0.05720  Biso   1.000  C
  C50      1.0000 0.89330  0.19530  0.01060  Biso   1.000  C
  H37      1.0000 0.87940  0.18080  0.95750  Biso   1.000  H
  C51      1.0000 0.89274  0.30130  0.03990  Biso   1.000  C
  C52      1.0000 0.91355  0.32160  0.11790  Biso   1.000  C
  H38      1.0000 0.91360  0.39350  0.13850  Biso   1.000  H
  C53      1.0000 0.93424  0.23760  0.16620  Biso   1.000  C
  C54      1.0000 0.93404  0.13430  0.13540  Biso   1.000  C
  H39      1.0000 0.94810  0.07700  0.16790  Biso   1.000  H
  C55      1.0000 0.91453  0.99730  0.02460  Biso   1.000  C
  H40      1.0000 0.90260  0.00280  0.96770  Biso   1.000  H
  H41      1.0000 0.93920  0.97820  0.03880  Biso   1.000  H
  C56      1.0000 0.89845  0.90190  0.04840  Biso   1.000  C
  C57      1.0000 0.86922  0.38880  0.98400  Biso   1.000  C
  H42      1.0000 0.87630  0.39890  0.94180  Biso   1.000  H
  H43      1.0000 0.84490  0.36120  0.96110  Biso   1.000  H
  C58      1.0000 0.87048  0.49950  0.02146  Biso   1.000  C
  C59      1.0000 0.95753  0.25970  0.25010  Biso   1.000  C
  H44      1.0000 0.97370  0.32090  0.25310  Biso   1.000  H
  H45      1.0000 0.97190  0.19240  0.27190  Biso   1.000  H
  C60      1.0000 0.93966  0.29050  0.30180  Biso   1.000  C
  C61      1.0000 0.80286  0.83060  0.24970  Biso   1.000  C
  C62      1.0000 0.82082  0.92650  0.28640  Biso   1.000  C
  H46      1.0000 0.84560  0.92500  0.31330  Biso   1.000  H
  C63      1.0000 0.80285  0.02450  0.28400  Biso   1.000  C
  C64      1.0000 0.76666  0.02540  0.24370  Biso   1.000  C
  H47      1.0000 0.75430  0.09210  0.24190  Biso   1.000  H
  C65      1.0000 0.74805  0.93100  0.20610  Biso   1.000  C
  C66      1.0000 0.76650  0.83410  0.20980  Biso   1.000  C
  H48      1.0000 0.75420  0.76890  0.18470  Biso   1.000  H
  C67      1.0000 0.82299  0.72540  0.25280  Biso   1.000  C
  H49      1.0000 0.80690  0.66120  0.24080  Biso   1.000  H
  H50      1.0000 0.84130  0.71540  0.30600  Biso   1.000  H
  C68      1.0000 0.84023  0.72320  0.19802  Biso   1.000  C
  C69      1.0000 0.82313  0.12920  0.31950  Biso   1.000  C
  H51      1.0000 0.84210  0.11220  0.37080  Biso   1.000  H
  H52      1.0000 0.80750  0.18500  0.32610  Biso   1.000  H
  C70      1.0000 0.83858  0.17640  0.26730  Biso   1.000  C
  C71      1.0000 0.70846  0.93810  0.16080  Biso   1.000  C
  H53      1.0000 0.70050  0.87490  0.12420  Biso   1.000  H
  H54      1.0000 0.70260  0.00760  0.13010  Biso   1.000  H
  C72      1.0000 0.68823  0.93640  0.20990  Biso   1.000  C
  U4       1.0000 0.62936  0.21098  0.40876  Biso   1.000  U
  O37      1.0000 0.61479  0.41310  0.40467  Biso   1.000  O
  O38      1.0000 0.60151  0.30700  0.48036  Biso   1.000  O
  O39      1.0000 0.61408  0.08200  0.49033  Biso   1.000  O
  O40      1.0000 0.64405  0.01140  0.43340  Biso   1.000  O
  O41      1.0000 0.58505  0.85780  0.22204  Biso   1.000  O
  O42      1.0000 0.54739  0.75060  0.12995  Biso   1.000  O
  O43      1.0000 0.65545  0.12940  0.32717  Biso   1.000  O
  O44      1.0000 0.64964  0.31020  0.32188  Biso   1.000  O
  O45      1.0000 0.62977  0.66980  0.21280  Biso   1.000  O
  O46      1.0000 0.68296  0.71890  0.29369  Biso   1.000  O
  O47      1.0000 0.84419  0.43260  0.32346  Biso   1.000  O
  O48      1.0000 0.79475  0.44030  0.21821  Biso   1.000  O
  C73      1.0000 0.58633  0.61110  0.44280  Biso   1.000  C
  C74      1.0000 0.60670  0.69530  0.48940  Biso   1.000  C
  H55      1.0000 0.62060  0.68080  0.54250  Biso   1.000  H
  C75      1.0000 0.60726  0.80130  0.46010  Biso   1.000  C
  C76      1.0000 0.58645  0.82160  0.38210  Biso   1.000  C
  H56      1.0000 0.58640  0.89350  0.36150  Biso   1.000  H
  C77      1.0000 0.56576  0.73760  0.33380  Biso   1.000  C
  C78      1.0000 0.56596  0.63430  0.36460  Biso   1.000  C
  H57      1.0000 0.55190  0.57700  0.33210  Biso   1.000  H
  C79      1.0000 0.58547  0.49730  0.47540  Biso   1.000  C
  H58      1.0000 0.59740  0.50280  0.53230  Biso   1.000  H
  H59      1.0000 0.56080  0.47820  0.46120  Biso   1.000  H
  C80      1.0000 0.60155  0.40190  0.45160  Biso   1.000  C
  C81      1.0000 0.63078  0.88880  0.51600  Biso   1.000  C
  H60      1.0000 0.62370  0.89890  0.55820  Biso   1.000  H
  H61      1.0000 0.65510  0.86120  0.53890  Biso   1.000  H
  C82      1.0000 0.62952  0.99950  0.47854  Biso   1.000  C
  C83      1.0000 0.54247  0.75970  0.24990  Biso   1.000  C
  H62      1.0000 0.52630  0.82090  0.24690  Biso   1.000  H
  H63      1.0000 0.52810  0.69240  0.22810  Biso   1.000  H
  C84      1.0000 0.56034  0.79050  0.19820  Biso   1.000  C
  C85      1.0000 0.69714  0.33060  0.25030  Biso   1.000  C
  C86      1.0000 0.67918  0.42650  0.21360  Biso   1.000  C
  H64      1.0000 0.65440  0.42500  0.18670  Biso   1.000  H
  C87      1.0000 0.69715  0.52450  0.21600  Biso   1.000  C
  C88      1.0000 0.73334  0.52540  0.25630  Biso   1.000  C
  H65      1.0000 0.74570  0.59210  0.25810  Biso   1.000  H
  C89      1.0000 0.75195  0.43100  0.29390  Biso   1.000  C
  C90      1.0000 0.73350  0.33410  0.29020  Biso   1.000  C
  H66      1.0000 0.74580  0.26890  0.31530  Biso   1.000  H
  C91      1.0000 0.67701  0.22540  0.24720  Biso   1.000  C
  H67      1.0000 0.69310  0.16120  0.25920  Biso   1.000  H
  H68      1.0000 0.65870  0.21540  0.19400  Biso   1.000  H
  C92      1.0000 0.65977  0.22320  0.30198  Biso   1.000  C
  C93      1.0000 0.67687  0.62920  0.18050  Biso   1.000  C
  H69      1.0000 0.65790  0.61220  0.12920  Biso   1.000  H
  H70      1.0000 0.69250  0.68500  0.17390  Biso   1.000  H
  C94      1.0000 0.66142  0.67640  0.23270  Biso   1.000  C
  C95      1.0000 0.79154  0.43810  0.33920  Biso   1.000  C
  H71      1.0000 0.79950  0.37490  0.37580  Biso   1.000  H
  H72      1.0000 0.79740  0.50760  0.36990  Biso   1.000  H
  C96      1.0000 0.81177  0.43640  0.29010  Biso   1.000  C
  U5       1.0000 0.62936  0.78902  0.90876  Biso   1.000  U
  O49      1.0000 0.61479  0.58690  0.90467  Biso   1.000  O
  O50      1.0000 0.60151  0.69300  0.98036  Biso   1.000  O
  O51      1.0000 0.61408  0.91800  0.99033  Biso   1.000  O
  O52      1.0000 0.64405  0.98860  0.93340  Biso   1.000  O
  O53      1.0000 0.58505  0.14220  0.72204  Biso   1.000  O
  O54      1.0000 0.54739  0.24940  0.62995  Biso   1.000  O
  O55      1.0000 0.65545  0.87060  0.82717  Biso   1.000  O
  O56      1.0000 0.64964  0.68980  0.82188  Biso   1.000  O
  O57      1.0000 0.62977  0.33020  0.71280  Biso   1.000  O
  O58      1.0000 0.68296  0.28110  0.79369  Biso   1.000  O
  O59      1.0000 0.84419  0.56740  0.82346  Biso   1.000  O
  O60      1.0000 0.79475  0.55970  0.71821  Biso   1.000  O
  C97      1.0000 0.58633  0.38890  0.94280  Biso   1.000  C
  C98      1.0000 0.60670  0.30470  0.98940  Biso   1.000  C
  H73      1.0000 0.62060  0.31920  0.04250  Biso   1.000  H
  C99      1.0000 0.60726  0.19870  0.96010  Biso   1.000  C
  C100     1.0000 0.58645  0.17840  0.88210  Biso   1.000  C
  H74      1.0000 0.58640  0.10650  0.86150  Biso   1.000  H
  C101     1.0000 0.56576  0.26240  0.83380  Biso   1.000  C
  C102     1.0000 0.56596  0.36570  0.86460  Biso   1.000  C
  H75      1.0000 0.55190  0.42300  0.83210  Biso   1.000  H
  C103     1.0000 0.58547  0.50270  0.97540  Biso   1.000  C
  H76      1.0000 0.59740  0.49720  0.03230  Biso   1.000  H
  H77      1.0000 0.56080  0.52180  0.96120  Biso   1.000  H
  C104     1.0000 0.60155  0.59810  0.95160  Biso   1.000  C
  C105     1.0000 0.63078  0.11120  0.01600  Biso   1.000  C
  H78      1.0000 0.62370  0.10110  0.05820  Biso   1.000  H
  H79      1.0000 0.65510  0.13880  0.03890  Biso   1.000  H
  C106     1.0000 0.62952  0.00050  0.97854  Biso   1.000  C
  C107     1.0000 0.54247  0.24030  0.74990  Biso   1.000  C
  H80      1.0000 0.52630  0.17910  0.74690  Biso   1.000  H
  H81      1.0000 0.52810  0.30760  0.72810  Biso   1.000  H
  C108     1.0000 0.56034  0.20950  0.69820  Biso   1.000  C
  C109     1.0000 0.69714  0.66940  0.75030  Biso   1.000  C
  C110     1.0000 0.67918  0.57350  0.71360  Biso   1.000  C
  H82      1.0000 0.65440  0.57500  0.68670  Biso   1.000  H
  C111     1.0000 0.69715  0.47550  0.71600  Biso   1.000  C
  C112     1.0000 0.73334  0.47460  0.75630  Biso   1.000  C
  H83      1.0000 0.74570  0.40790  0.75810  Biso   1.000  H
  C113     1.0000 0.75195  0.56900  0.79390  Biso   1.000  C
  C114     1.0000 0.73350  0.66590  0.79020  Biso   1.000  C
  H84      1.0000 0.74580  0.73110  0.81530  Biso   1.000  H
  C115     1.0000 0.67701  0.77460  0.74720  Biso   1.000  C
  H85      1.0000 0.69310  0.83880  0.75920  Biso   1.000  H
  H86      1.0000 0.65870  0.78460  0.69400  Biso   1.000  H
  C116     1.0000 0.65977  0.77680  0.80198  Biso   1.000  C
  C117     1.0000 0.67687  0.37080  0.68050  Biso   1.000  C
  H87      1.0000 0.65790  0.38780  0.62920  Biso   1.000  H
  H88      1.0000 0.69250  0.31500  0.67390  Biso   1.000  H
  C118     1.0000 0.66142  0.32360  0.73270  Biso   1.000  C
  C119     1.0000 0.79154  0.56190  0.83920  Biso   1.000  C
  H89      1.0000 0.79950  0.62510  0.87580  Biso   1.000  H
  H90      1.0000 0.79740  0.49240  0.86990  Biso   1.000  H
  C120     1.0000 0.81177  0.56360  0.79010  Biso   1.000  C
  U6       1.0000 0.87064  0.28902  0.59124  Biso   1.000  U
  O61      1.0000 0.88521  0.08690  0.59533  Biso   1.000  O
  O62      1.0000 0.89849  0.19300  0.51964  Biso   1.000  O
  O63      1.0000 0.88592  0.41800  0.50967  Biso   1.000  O
  O64      1.0000 0.85595  0.48860  0.56660  Biso   1.000  O
  O65      1.0000 0.91495  0.64220  0.77796  Biso   1.000  O
  O66      1.0000 0.95261  0.74940  0.87005  Biso   1.000  O
  O67      1.0000 0.84455  0.37060  0.67283  Biso   1.000  O
  O68      1.0000 0.85036  0.18980  0.67812  Biso   1.000  O
  O69      1.0000 0.87023  0.83020  0.78720  Biso   1.000  O
  O70      1.0000 0.81704  0.78110  0.70631  Biso   1.000  O
  O71      1.0000 0.65581  0.06740  0.67654  Biso   1.000  O
  O72      1.0000 0.70525  0.05970  0.78179  Biso   1.000  O
  C121     1.0000 0.91367  0.88890  0.55720  Biso   1.000  C
  C122     1.0000 0.89330  0.80470  0.51060  Biso   1.000  C
  H91      1.0000 0.87940  0.81920  0.45750  Biso   1.000  H
  C123     1.0000 0.89274  0.69870  0.53990  Biso   1.000  C
  C124     1.0000 0.91355  0.67840  0.61790  Biso   1.000  C
  H92      1.0000 0.91360  0.60650  0.63850  Biso   1.000  H
  C125     1.0000 0.93424  0.76240  0.66620  Biso   1.000  C
  C126     1.0000 0.93404  0.86570  0.63540  Biso   1.000  C
  H93      1.0000 0.94810  0.92300  0.66790  Biso   1.000  H
  C127     1.0000 0.91453  0.00270  0.52460  Biso   1.000  C
  H94      1.0000 0.90260  0.99720  0.46770  Biso   1.000  H
  H95      1.0000 0.93920  0.02180  0.53880  Biso   1.000  H
  C128     1.0000 0.89845  0.09810  0.54840  Biso   1.000  C
  C129     1.0000 0.86922  0.61120  0.48400  Biso   1.000  C
  H96      1.0000 0.87630  0.60110  0.44180  Biso   1.000  H
  H97      1.0000 0.84490  0.63880  0.46110  Biso   1.000  H
  C130     1.0000 0.87048  0.50050  0.52146  Biso   1.000  C
  C131     1.0000 0.95753  0.74030  0.75010  Biso   1.000  C
  H98      1.0000 0.97370  0.67910  0.75310  Biso   1.000  H
  H99      1.0000 0.97190  0.80760  0.77190  Biso   1.000  H
  C132     1.0000 0.93966  0.70950  0.80180  Biso   1.000  C
  C133     1.0000 0.80286  0.16940  0.74970  Biso   1.000  C
  C134     1.0000 0.82082  0.07350  0.78640  Biso   1.000  C
  H100     1.0000 0.84560  0.07500  0.81330  Biso   1.000  H
  C135     1.0000 0.80285  0.97550  0.78400  Biso   1.000  C
  C136     1.0000 0.76666  0.97460  0.74370  Biso   1.000  C
  H101     1.0000 0.75430  0.90790  0.74190  Biso   1.000  H
  C137     1.0000 0.74805  0.06900  0.70610  Biso   1.000  C
  C138     1.0000 0.76650  0.16590  0.70980  Biso   1.000  C
  H102     1.0000 0.75420  0.23110  0.68470  Biso   1.000  H
  C139     1.0000 0.82299  0.27460  0.75280  Biso   1.000  C
  H103     1.0000 0.80690  0.33880  0.74080  Biso   1.000  H
  H104     1.0000 0.84130  0.28460  0.80600  Biso   1.000  H
  C140     1.0000 0.84023  0.27680  0.69802  Biso   1.000  C
  C141     1.0000 0.82313  0.87080  0.81950  Biso   1.000  C
  H105     1.0000 0.84210  0.88780  0.87080  Biso   1.000  H
  H106     1.0000 0.80750  0.81500  0.82610  Biso   1.000  H
  C142     1.0000 0.83858  0.82360  0.76730  Biso   1.000  C
  C143     1.0000 0.70846  0.06190  0.66080  Biso   1.000  C
  H107     1.0000 0.70050  0.12510  0.62420  Biso   1.000  H
  H108     1.0000 0.70260  0.99240  0.63010  Biso   1.000  H
  C144     1.0000 0.68823  0.06360  0.70990  Biso   1.000  C
  U7       1.0000 0.12936  0.28902  0.90876  Biso   1.000  U
  O73      1.0000 0.11479  0.08690  0.90467  Biso   1.000  O
  O74      1.0000 0.10151  0.19300  0.98036  Biso   1.000  O
  O75      1.0000 0.11408  0.41800  0.99033  Biso   1.000  O
  O76      1.0000 0.14405  0.48860  0.93340  Biso   1.000  O
  O77      1.0000 0.08505  0.64220  0.72204  Biso   1.000  O
  O78      1.0000 0.04739  0.74940  0.62995  Biso   1.000  O
  O79      1.0000 0.15545  0.37060  0.82717  Biso   1.000  O
  O80      1.0000 0.14964  0.18980  0.82188  Biso   1.000  O
  O81      1.0000 0.12977  0.83020  0.71280  Biso   1.000  O
  O82      1.0000 0.18296  0.78110  0.79369  Biso   1.000  O
  O83      1.0000 0.34419  0.06740  0.82346  Biso   1.000  O
  O84      1.0000 0.29475  0.05970  0.71821  Biso   1.000  O
  C145     1.0000 0.08633  0.88890  0.94280  Biso   1.000  C
  C146     1.0000 0.10670  0.80470  0.98940  Biso   1.000  C
  H109     1.0000 0.12060  0.81920  0.04250  Biso   1.000  H
  C147     1.0000 0.10726  0.69870  0.96010  Biso   1.000  C
  C148     1.0000 0.08645  0.67840  0.88210  Biso   1.000  C
  H110     1.0000 0.08640  0.60650  0.86150  Biso   1.000  H
  C149     1.0000 0.06576  0.76240  0.83380  Biso   1.000  C
  C150     1.0000 0.06596  0.86570  0.86460  Biso   1.000  C
  H111     1.0000 0.05190  0.92300  0.83210  Biso   1.000  H
  C151     1.0000 0.08547  0.00270  0.97540  Biso   1.000  C
  H112     1.0000 0.09740  0.99720  0.03230  Biso   1.000  H
  H113     1.0000 0.06080  0.02180  0.96120  Biso   1.000  H
  C152     1.0000 0.10155  0.09810  0.95160  Biso   1.000  C
  C153     1.0000 0.13078  0.61120  0.01600  Biso   1.000  C
  H114     1.0000 0.12370  0.60110  0.05820  Biso   1.000  H
  H115     1.0000 0.15510  0.63880  0.03890  Biso   1.000  H
  C154     1.0000 0.12952  0.50050  0.97854  Biso   1.000  C
  C155     1.0000 0.04247  0.74030  0.74990  Biso   1.000  C
  H116     1.0000 0.02630  0.67910  0.74690  Biso   1.000  H
  H117     1.0000 0.02810  0.80760  0.72810  Biso   1.000  H
  C156     1.0000 0.06034  0.70950  0.69820  Biso   1.000  C
  C157     1.0000 0.19714  0.16940  0.75030  Biso   1.000  C
  C158     1.0000 0.17918  0.07350  0.71360  Biso   1.000  C
  H118     1.0000 0.15440  0.07500  0.68670  Biso   1.000  H
  C159     1.0000 0.19715  0.97550  0.71600  Biso   1.000  C
  C160     1.0000 0.23334  0.97460  0.75630  Biso   1.000  C
  H119     1.0000 0.24570  0.90790  0.75810  Biso   1.000  H
  C161     1.0000 0.25195  0.06900  0.79390  Biso   1.000  C
  C162     1.0000 0.23350  0.16590  0.79020  Biso   1.000  C
  H120     1.0000 0.24580  0.23110  0.81530  Biso   1.000  H
  C163     1.0000 0.17701  0.27460  0.74720  Biso   1.000  C
  H121     1.0000 0.19310  0.33880  0.75920  Biso   1.000  H
  H122     1.0000 0.15870  0.28460  0.69400  Biso   1.000  H
  C164     1.0000 0.15977  0.27680  0.80198  Biso   1.000  C
  C165     1.0000 0.17687  0.87080  0.68050  Biso   1.000  C
  H123     1.0000 0.15790  0.88780  0.62920  Biso   1.000  H
  H124     1.0000 0.19250  0.81500  0.67390  Biso   1.000  H
  C166     1.0000 0.16142  0.82360  0.73270  Biso   1.000  C
  C167     1.0000 0.29154  0.06190  0.83920  Biso   1.000  C
  H125     1.0000 0.29950  0.12510  0.87580  Biso   1.000  H
  H126     1.0000 0.29740  0.99240  0.86990  Biso   1.000  H
  C168     1.0000 0.31177  0.06360  0.79010  Biso   1.000  C
  U8       1.0000 0.37064  0.78902  0.59124  Biso   1.000  U
  O85      1.0000 0.38521  0.58690  0.59533  Biso   1.000  O
  O86      1.0000 0.39849  0.69300  0.51964  Biso   1.000  O
  O87      1.0000 0.38592  0.91800  0.50967  Biso   1.000  O
  O88      1.0000 0.35595  0.98860  0.56660  Biso   1.000  O
  O89      1.0000 0.41495  0.14220  0.77796  Biso   1.000  O
  O90      1.0000 0.45261  0.24940  0.87005  Biso   1.000  O
  O91      1.0000 0.34455  0.87060  0.67283  Biso   1.000  O
  O92      1.0000 0.35036  0.68980  0.67812  Biso   1.000  O
  O93      1.0000 0.37023  0.33020  0.78720  Biso   1.000  O
  O94      1.0000 0.31704  0.28110  0.70631  Biso   1.000  O
  O95      1.0000 0.15581  0.56740  0.67654  Biso   1.000  O
  O96      1.0000 0.20525  0.55970  0.78179  Biso   1.000  O
  C169     1.0000 0.41367  0.38890  0.55720  Biso   1.000  C
  C170     1.0000 0.39330  0.30470  0.51060  Biso   1.000  C
  H127     1.0000 0.37940  0.31920  0.45750  Biso   1.000  H
  C171     1.0000 0.39274  0.19870  0.53990  Biso   1.000  C
  C172     1.0000 0.41355  0.17840  0.61790  Biso   1.000  C
  H128     1.0000 0.41360  0.10650  0.63850  Biso   1.000  H
  C173     1.0000 0.43424  0.26240  0.66620  Biso   1.000  C
  C174     1.0000 0.43404  0.36570  0.63540  Biso   1.000  C
  H129     1.0000 0.44810  0.42300  0.66790  Biso   1.000  H
  C175     1.0000 0.41453  0.50270  0.52460  Biso   1.000  C
  H130     1.0000 0.40260  0.49720  0.46770  Biso   1.000  H
  H131     1.0000 0.43920  0.52180  0.53880  Biso   1.000  H
  C176     1.0000 0.39845  0.59810  0.54840  Biso   1.000  C
  C177     1.0000 0.36922  0.11120  0.48400  Biso   1.000  C
  H132     1.0000 0.37630  0.10110  0.44180  Biso   1.000  H
  H133     1.0000 0.34490  0.13880  0.46110  Biso   1.000  H
  C178     1.0000 0.37048  0.00050  0.52146  Biso   1.000  C
  C179     1.0000 0.45753  0.24030  0.75010  Biso   1.000  C
  H134     1.0000 0.47370  0.17910  0.75310  Biso   1.000  H
  H135     1.0000 0.47190  0.30760  0.77190  Biso   1.000  H
  C180     1.0000 0.43966  0.20950  0.80180  Biso   1.000  C
  C181     1.0000 0.30286  0.66940  0.74970  Biso   1.000  C
  C182     1.0000 0.32082  0.57350  0.78640  Biso   1.000  C
  H136     1.0000 0.34560  0.57500  0.81330  Biso   1.000  H
  C183     1.0000 0.30285  0.47550  0.78400  Biso   1.000  C
  C184     1.0000 0.26666  0.47460  0.74370  Biso   1.000  C
  H137     1.0000 0.25430  0.40790  0.74190  Biso   1.000  H
  C185     1.0000 0.24805  0.56900  0.70610  Biso   1.000  C
  C186     1.0000 0.26650  0.66590  0.70980  Biso   1.000  C
  H138     1.0000 0.25420  0.73110  0.68470  Biso   1.000  H
  C187     1.0000 0.32299  0.77460  0.75280  Biso   1.000  C
  H139     1.0000 0.30690  0.83880  0.74080  Biso   1.000  H
  H140     1.0000 0.34130  0.78460  0.80600  Biso   1.000  H
  C188     1.0000 0.34023  0.77680  0.69802  Biso   1.000  C
  C189     1.0000 0.32313  0.37080  0.81950  Biso   1.000  C
  H141     1.0000 0.34210  0.38780  0.87080  Biso   1.000  H
  H142     1.0000 0.30750  0.31500  0.82610  Biso   1.000  H
  C190     1.0000 0.33858  0.32360  0.76730  Biso   1.000  C
  C191     1.0000 0.20846  0.56190  0.66080  Biso   1.000  C
  H143     1.0000 0.20050  0.62510  0.62420  Biso   1.000  H
  H144     1.0000 0.20260  0.49240  0.63010  Biso   1.000  H
  C192     1.0000 0.18823  0.56360  0.70990  Biso   1.000  C
