data_image0
_cell_length_a       16.373
_cell_length_b       24.228
_cell_length_c       20.184
_cell_angle_alpha    90
_cell_angle_beta     105.82
_cell_angle_gamma    90

_symmetry_space_group_name_H-M    "P 1"
_symmetry_int_tables_number       1

loop_
  _symmetry_equiv_pos_as_xyz
  'x, y, z'

loop_
  _atom_site_label
  _atom_site_occupancy
  _atom_site_fract_x
  _atom_site_fract_y
  _atom_site_fract_z
  _atom_site_thermal_displace_type
  _atom_site_B_iso_or_equiv
  _atom_site_type_symbol
  Cl1      1.0000 0.37249  0.06061  0.22665  Biso   1.000  Cl
  N1       1.0000 0.49180  0.28020  0.81960  Biso   1.000  N
  N2       1.0000 0.49960  0.15360  0.68550  Biso   1.000  N
  N3       1.0000 0.50720  0.12160  0.36890  Biso   1.000  N
  C1       1.0000 0.26260  0.26990  0.77150  Biso   1.000  C
  C2       1.0000 0.20090  0.23930  0.72500  Biso   1.000  C
  H1       1.0000 0.14260  0.24490  0.72200  Biso   1.000  H
  C3       1.0000 0.22460  0.20040  0.68310  Biso   1.000  C
  H2       1.0000 0.18250  0.17950  0.65130  Biso   1.000  H
  C4       1.0000 0.31000  0.19220  0.68760  Biso   1.000  C
  H3       1.0000 0.32620  0.16570  0.65890  Biso   1.000  H
  N4       1.0000 0.37160  0.22280  0.73400  Biso   1.000  N
  C5       1.0000 0.34790  0.26160  0.77600  Biso   1.000  C
  C6       1.0000 0.24030  0.31240  0.81540  Biso   1.000  C
  H4       1.0000 0.18280  0.32060  0.81310  Biso   1.000  H
  C7       1.0000 0.30000  0.33730  0.85580  Biso   1.000  C
  H5       1.0000 0.28620  0.36370  0.88580  Biso   1.000  H
  C8       1.0000 0.38680  0.32920  0.86040  Biso   1.000  C
  C9       1.0000 0.45630  0.35910  0.90540  Biso   1.000  C
  H6       1.0000 0.44550  0.38540  0.93690  Biso   1.000  H
  C10      1.0000 0.53440  0.34980  0.90290  Biso   1.000  C
  H7       1.0000 0.57920  0.37120  0.93110  Biso   1.000  H
  C11      1.0000 0.55360  0.30920  0.85970  Biso   1.000  C
  H8       1.0000 0.61080  0.30280  0.85960  Biso   1.000  H
  C12      1.0000 0.40930  0.29180  0.82010  Biso   1.000  C
  C13      1.0000 0.50250  0.10310  0.71400  Biso   1.000  C
  C14      1.0000 0.50670  0.05780  0.67850  Biso   1.000  C
  H9       1.0000 0.50920  0.02250  0.69960  Biso   1.000  H
  C15      1.0000 0.50740  0.06220  0.60970  Biso   1.000  C
  H10      1.0000 0.51100  0.02980  0.58410  Biso   1.000  H
  C16      1.0000 0.50290  0.11190  0.57930  Biso   1.000  C
  C17      1.0000 0.49980  0.15800  0.61900  Biso   1.000  C
  H11      1.0000 0.49780  0.19360  0.59890  Biso   1.000  H
  C18      1.0000 0.50490  0.11650  0.50700  Biso   1.000  C
  C19      1.0000 0.55850  0.08490  0.48250  Biso   1.000  C
  H12      1.0000 0.59650  0.06030  0.51230  Biso   1.000  H
  C20      1.0000 0.55760  0.08870  0.41330  Biso   1.000  C
  H13      1.0000 0.59580  0.06610  0.39750  Biso   1.000  H
  C21      1.0000 0.45820  0.15460  0.39500  Biso   1.000  C
  H14      1.0000 0.42400  0.18090  0.36490  Biso   1.000  H
  C22      1.0000 0.45320  0.15360  0.46150  Biso   1.000  C
  H15      1.0000 0.41560  0.17740  0.47620  Biso   1.000  H
  Cl2      1.0000 0.62751  0.06061  0.27335  Biso   1.000  Cl
  N5       1.0000 0.50820  0.28020  0.68040  Biso   1.000  N
  N6       1.0000 0.50040  0.15360  0.81450  Biso   1.000  N
  N7       1.0000 0.49280  0.12160  0.13110  Biso   1.000  N
  C23      1.0000 0.73740  0.26990  0.72850  Biso   1.000  C
  C24      1.0000 0.79910  0.23930  0.77500  Biso   1.000  C
  H16      1.0000 0.85740  0.24490  0.77800  Biso   1.000  H
  C25      1.0000 0.77540  0.20040  0.81690  Biso   1.000  C
  H17      1.0000 0.81750  0.17950  0.84870  Biso   1.000  H
  C26      1.0000 0.69000  0.19220  0.81240  Biso   1.000  C
  H18      1.0000 0.67380  0.16570  0.84110  Biso   1.000  H
  N8       1.0000 0.62840  0.22280  0.76600  Biso   1.000  N
  C27      1.0000 0.65210  0.26160  0.72400  Biso   1.000  C
  C28      1.0000 0.75970  0.31240  0.68460  Biso   1.000  C
  H19      1.0000 0.81720  0.32060  0.68690  Biso   1.000  H
  C29      1.0000 0.70000  0.33730  0.64420  Biso   1.000  C
  H20      1.0000 0.71380  0.36370  0.61420  Biso   1.000  H
  C30      1.0000 0.61320  0.32920  0.63960  Biso   1.000  C
  C31      1.0000 0.54370  0.35910  0.59460  Biso   1.000  C
  H21      1.0000 0.55450  0.38540  0.56310  Biso   1.000  H
  C32      1.0000 0.46560  0.34980  0.59710  Biso   1.000  C
  H22      1.0000 0.42080  0.37120  0.56890  Biso   1.000  H
  C33      1.0000 0.44640  0.30920  0.64030  Biso   1.000  C
  H23      1.0000 0.38920  0.30280  0.64040  Biso   1.000  H
  C34      1.0000 0.59070  0.29180  0.67990  Biso   1.000  C
  C35      1.0000 0.49750  0.10310  0.78600  Biso   1.000  C
  C36      1.0000 0.49330  0.05780  0.82150  Biso   1.000  C
  H24      1.0000 0.49080  0.02250  0.80040  Biso   1.000  H
  C37      1.0000 0.49260  0.06220  0.89030  Biso   1.000  C
  H25      1.0000 0.48900  0.02980  0.91590  Biso   1.000  H
  C38      1.0000 0.49710  0.11190  0.92070  Biso   1.000  C
  C39      1.0000 0.50020  0.15800  0.88100  Biso   1.000  C
  H26      1.0000 0.50220  0.19360  0.90110  Biso   1.000  H
  C40      1.0000 0.49510  0.11650  0.99300  Biso   1.000  C
  C41      1.0000 0.44150  0.08490  0.01750  Biso   1.000  C
  H27      1.0000 0.40350  0.06030  0.98770  Biso   1.000  H
  C42      1.0000 0.44240  0.08870  0.08670  Biso   1.000  C
  H28      1.0000 0.40420  0.06610  0.10250  Biso   1.000  H
  C43      1.0000 0.54180  0.15460  0.10500  Biso   1.000  C
  H29      1.0000 0.57600  0.18090  0.13510  Biso   1.000  H
  C44      1.0000 0.54680  0.15360  0.03850  Biso   1.000  C
  H30      1.0000 0.58440  0.17740  0.02380  Biso   1.000  H
  Ru1      1.0000 0.50000  0.21902  0.75000  Biso   1.000  Ru
  Cd1      1.0000 0.50000  0.11974  0.25000  Biso   1.000  Cd
  Cl3      1.0000 0.50000  0.22186  0.25000  Biso   1.000  Cl
  Cl4      1.0000 0.87249  0.56061  0.22665  Biso   1.000  Cl
  N9       1.0000 0.99180  0.78020  0.81960  Biso   1.000  N
  N10      1.0000 0.99960  0.65360  0.68550  Biso   1.000  N
  N11      1.0000 0.00720  0.62160  0.36890  Biso   1.000  N
  C45      1.0000 0.76260  0.76990  0.77150  Biso   1.000  C
  C46      1.0000 0.70090  0.73930  0.72500  Biso   1.000  C
  H31      1.0000 0.64260  0.74490  0.72200  Biso   1.000  H
  C47      1.0000 0.72460  0.70040  0.68310  Biso   1.000  C
  H32      1.0000 0.68250  0.67950  0.65130  Biso   1.000  H
  C48      1.0000 0.81000  0.69220  0.68760  Biso   1.000  C
  H33      1.0000 0.82620  0.66570  0.65890  Biso   1.000  H
  N12      1.0000 0.87160  0.72280  0.73400  Biso   1.000  N
  C49      1.0000 0.84790  0.76160  0.77600  Biso   1.000  C
  C50      1.0000 0.74030  0.81240  0.81540  Biso   1.000  C
  H34      1.0000 0.68280  0.82060  0.81310  Biso   1.000  H
  C51      1.0000 0.80000  0.83730  0.85580  Biso   1.000  C
  H35      1.0000 0.78620  0.86370  0.88580  Biso   1.000  H
  C52      1.0000 0.88680  0.82920  0.86040  Biso   1.000  C
  C53      1.0000 0.95630  0.85910  0.90540  Biso   1.000  C
  H36      1.0000 0.94550  0.88540  0.93690  Biso   1.000  H
  C54      1.0000 0.03440  0.84980  0.90290  Biso   1.000  C
  H37      1.0000 0.07920  0.87120  0.93110  Biso   1.000  H
  C55      1.0000 0.05360  0.80920  0.85970  Biso   1.000  C
  H38      1.0000 0.11080  0.80280  0.85960  Biso   1.000  H
  C56      1.0000 0.90930  0.79180  0.82010  Biso   1.000  C
  C57      1.0000 0.00250  0.60310  0.71400  Biso   1.000  C
  C58      1.0000 0.00670  0.55780  0.67850  Biso   1.000  C
  H39      1.0000 0.00920  0.52250  0.69960  Biso   1.000  H
  C59      1.0000 0.00740  0.56220  0.60970  Biso   1.000  C
  H40      1.0000 0.01100  0.52980  0.58410  Biso   1.000  H
  C60      1.0000 0.00290  0.61190  0.57930  Biso   1.000  C
  C61      1.0000 0.99980  0.65800  0.61900  Biso   1.000  C
  H41      1.0000 0.99780  0.69360  0.59890  Biso   1.000  H
  C62      1.0000 0.00490  0.61650  0.50700  Biso   1.000  C
  C63      1.0000 0.05850  0.58490  0.48250  Biso   1.000  C
  H42      1.0000 0.09650  0.56030  0.51230  Biso   1.000  H
  C64      1.0000 0.05760  0.58870  0.41330  Biso   1.000  C
  H43      1.0000 0.09580  0.56610  0.39750  Biso   1.000  H
  C65      1.0000 0.95820  0.65460  0.39500  Biso   1.000  C
  H44      1.0000 0.92400  0.68090  0.36490  Biso   1.000  H
  C66      1.0000 0.95320  0.65360  0.46150  Biso   1.000  C
  H45      1.0000 0.91560  0.67740  0.47620  Biso   1.000  H
  Cl5      1.0000 0.12751  0.56061  0.27335  Biso   1.000  Cl
  N13      1.0000 0.00820  0.78020  0.68040  Biso   1.000  N
  N14      1.0000 0.00040  0.65360  0.81450  Biso   1.000  N
  N15      1.0000 0.99280  0.62160  0.13110  Biso   1.000  N
  C67      1.0000 0.23740  0.76990  0.72850  Biso   1.000  C
  C68      1.0000 0.29910  0.73930  0.77500  Biso   1.000  C
  H46      1.0000 0.35740  0.74490  0.77800  Biso   1.000  H
  C69      1.0000 0.27540  0.70040  0.81690  Biso   1.000  C
  H47      1.0000 0.31750  0.67950  0.84870  Biso   1.000  H
  C70      1.0000 0.19000  0.69220  0.81240  Biso   1.000  C
  H48      1.0000 0.17380  0.66570  0.84110  Biso   1.000  H
  N16      1.0000 0.12840  0.72280  0.76600  Biso   1.000  N
  C71      1.0000 0.15210  0.76160  0.72400  Biso   1.000  C
  C72      1.0000 0.25970  0.81240  0.68460  Biso   1.000  C
  H49      1.0000 0.31720  0.82060  0.68690  Biso   1.000  H
  C73      1.0000 0.20000  0.83730  0.64420  Biso   1.000  C
  H50      1.0000 0.21380  0.86370  0.61420  Biso   1.000  H
  C74      1.0000 0.11320  0.82920  0.63960  Biso   1.000  C
  C75      1.0000 0.04370  0.85910  0.59460  Biso   1.000  C
  H51      1.0000 0.05450  0.88540  0.56310  Biso   1.000  H
  C76      1.0000 0.96560  0.84980  0.59710  Biso   1.000  C
  H52      1.0000 0.92080  0.87120  0.56890  Biso   1.000  H
  C77      1.0000 0.94640  0.80920  0.64030  Biso   1.000  C
  H53      1.0000 0.88920  0.80280  0.64040  Biso   1.000  H
  C78      1.0000 0.09070  0.79180  0.67990  Biso   1.000  C
  C79      1.0000 0.99750  0.60310  0.78600  Biso   1.000  C
  C80      1.0000 0.99330  0.55780  0.82150  Biso   1.000  C
  H54      1.0000 0.99080  0.52250  0.80040  Biso   1.000  H
  C81      1.0000 0.99260  0.56220  0.89030  Biso   1.000  C
  H55      1.0000 0.98900  0.52980  0.91590  Biso   1.000  H
  C82      1.0000 0.99710  0.61190  0.92070  Biso   1.000  C
  C83      1.0000 0.00020  0.65800  0.88100  Biso   1.000  C
  H56      1.0000 0.00220  0.69360  0.90110  Biso   1.000  H
  C84      1.0000 0.99510  0.61650  0.99300  Biso   1.000  C
  C85      1.0000 0.94150  0.58490  0.01750  Biso   1.000  C
  H57      1.0000 0.90350  0.56030  0.98770  Biso   1.000  H
  C86      1.0000 0.94240  0.58870  0.08670  Biso   1.000  C
  H58      1.0000 0.90420  0.56610  0.10250  Biso   1.000  H
  C87      1.0000 0.04180  0.65460  0.10500  Biso   1.000  C
  H59      1.0000 0.07600  0.68090  0.13510  Biso   1.000  H
  C88      1.0000 0.04680  0.65360  0.03850  Biso   1.000  C
  H60      1.0000 0.08440  0.67740  0.02380  Biso   1.000  H
  Ru2      1.0000 0.00000  0.71902  0.75000  Biso   1.000  Ru
  Cd2      1.0000 0.00000  0.61974  0.25000  Biso   1.000  Cd
  Cl6      1.0000 0.00000  0.72186  0.25000  Biso   1.000  Cl
  Cl7      1.0000 0.62751  0.93939  0.77335  Biso   1.000  Cl
  N17      1.0000 0.50820  0.71980  0.18040  Biso   1.000  N
  N18      1.0000 0.50040  0.84640  0.31450  Biso   1.000  N
  N19      1.0000 0.49280  0.87840  0.63110  Biso   1.000  N
  C89      1.0000 0.73740  0.73010  0.22850  Biso   1.000  C
  C90      1.0000 0.79910  0.76070  0.27500  Biso   1.000  C
  H61      1.0000 0.85740  0.75510  0.27800  Biso   1.000  H
  C91      1.0000 0.77540  0.79960  0.31690  Biso   1.000  C
  H62      1.0000 0.81750  0.82050  0.34870  Biso   1.000  H
  C92      1.0000 0.69000  0.80780  0.31240  Biso   1.000  C
  H63      1.0000 0.67380  0.83430  0.34110  Biso   1.000  H
  N20      1.0000 0.62840  0.77720  0.26600  Biso   1.000  N
  C93      1.0000 0.65210  0.73840  0.22400  Biso   1.000  C
  C94      1.0000 0.75970  0.68760  0.18460  Biso   1.000  C
  H64      1.0000 0.81720  0.67940  0.18690  Biso   1.000  H
  C95      1.0000 0.70000  0.66270  0.14420  Biso   1.000  C
  H65      1.0000 0.71380  0.63630  0.11420  Biso   1.000  H
  C96      1.0000 0.61320  0.67080  0.13960  Biso   1.000  C
  C97      1.0000 0.54370  0.64090  0.09460  Biso   1.000  C
  H66      1.0000 0.55450  0.61460  0.06310  Biso   1.000  H
  C98      1.0000 0.46560  0.65020  0.09710  Biso   1.000  C
  H67      1.0000 0.42080  0.62880  0.06890  Biso   1.000  H
  C99      1.0000 0.44640  0.69080  0.14030  Biso   1.000  C
  H68      1.0000 0.38920  0.69720  0.14040  Biso   1.000  H
  C100     1.0000 0.59070  0.70820  0.17990  Biso   1.000  C
  C101     1.0000 0.49750  0.89690  0.28600  Biso   1.000  C
  C102     1.0000 0.49330  0.94220  0.32150  Biso   1.000  C
  H69      1.0000 0.49080  0.97750  0.30040  Biso   1.000  H
  C103     1.0000 0.49260  0.93780  0.39030  Biso   1.000  C
  H70      1.0000 0.48900  0.97020  0.41590  Biso   1.000  H
  C104     1.0000 0.49710  0.88810  0.42070  Biso   1.000  C
  C105     1.0000 0.50020  0.84200  0.38100  Biso   1.000  C
  H71      1.0000 0.50220  0.80640  0.40110  Biso   1.000  H
  C106     1.0000 0.49510  0.88350  0.49300  Biso   1.000  C
  C107     1.0000 0.44150  0.91510  0.51750  Biso   1.000  C
  H72      1.0000 0.40350  0.93970  0.48770  Biso   1.000  H
  C108     1.0000 0.44240  0.91130  0.58670  Biso   1.000  C
  H73      1.0000 0.40420  0.93390  0.60250  Biso   1.000  H
  C109     1.0000 0.54180  0.84540  0.60500  Biso   1.000  C
  H74      1.0000 0.57600  0.81910  0.63510  Biso   1.000  H
  C110     1.0000 0.54680  0.84640  0.53850  Biso   1.000  C
  H75      1.0000 0.58440  0.82260  0.52380  Biso   1.000  H
  Cl8      1.0000 0.37249  0.93939  0.72665  Biso   1.000  Cl
  N21      1.0000 0.49180  0.71980  0.31960  Biso   1.000  N
  N22      1.0000 0.49960  0.84640  0.18550  Biso   1.000  N
  N23      1.0000 0.50720  0.87840  0.86890  Biso   1.000  N
  C111     1.0000 0.26260  0.73010  0.27150  Biso   1.000  C
  C112     1.0000 0.20090  0.76070  0.22500  Biso   1.000  C
  H76      1.0000 0.14260  0.75510  0.22200  Biso   1.000  H
  C113     1.0000 0.22460  0.79960  0.18310  Biso   1.000  C
  H77      1.0000 0.18250  0.82050  0.15130  Biso   1.000  H
  C114     1.0000 0.31000  0.80780  0.18760  Biso   1.000  C
  H78      1.0000 0.32620  0.83430  0.15890  Biso   1.000  H
  N24      1.0000 0.37160  0.77720  0.23400  Biso   1.000  N
  C115     1.0000 0.34790  0.73840  0.27600  Biso   1.000  C
  C116     1.0000 0.24030  0.68760  0.31540  Biso   1.000  C
  H79      1.0000 0.18280  0.67940  0.31310  Biso   1.000  H
  C117     1.0000 0.30000  0.66270  0.35580  Biso   1.000  C
  H80      1.0000 0.28620  0.63630  0.38580  Biso   1.000  H
  C118     1.0000 0.38680  0.67080  0.36040  Biso   1.000  C
  C119     1.0000 0.45630  0.64090  0.40540  Biso   1.000  C
  H81      1.0000 0.44550  0.61460  0.43690  Biso   1.000  H
  C120     1.0000 0.53440  0.65020  0.40290  Biso   1.000  C
  H82      1.0000 0.57920  0.62880  0.43110  Biso   1.000  H
  C121     1.0000 0.55360  0.69080  0.35970  Biso   1.000  C
  H83      1.0000 0.61080  0.69720  0.35960  Biso   1.000  H
  C122     1.0000 0.40930  0.70820  0.32010  Biso   1.000  C
  C123     1.0000 0.50250  0.89690  0.21400  Biso   1.000  C
  C124     1.0000 0.50670  0.94220  0.17850  Biso   1.000  C
  H84      1.0000 0.50920  0.97750  0.19960  Biso   1.000  H
  C125     1.0000 0.50740  0.93780  0.10970  Biso   1.000  C
  H85      1.0000 0.51100  0.97020  0.08410  Biso   1.000  H
  C126     1.0000 0.50290  0.88810  0.07930  Biso   1.000  C
  C127     1.0000 0.49980  0.84200  0.11900  Biso   1.000  C
  H86      1.0000 0.49780  0.80640  0.09890  Biso   1.000  H
  C128     1.0000 0.50490  0.88350  0.00700  Biso   1.000  C
  C129     1.0000 0.55850  0.91510  0.98250  Biso   1.000  C
  H87      1.0000 0.59650  0.93970  0.01230  Biso   1.000  H
  C130     1.0000 0.55760  0.91130  0.91330  Biso   1.000  C
  H88      1.0000 0.59580  0.93390  0.89750  Biso   1.000  H
  C131     1.0000 0.45820  0.84540  0.89500  Biso   1.000  C
  H89      1.0000 0.42400  0.81910  0.86490  Biso   1.000  H
  C132     1.0000 0.45320  0.84640  0.96150  Biso   1.000  C
  H90      1.0000 0.41560  0.82260  0.97620  Biso   1.000  H
  Ru3      1.0000 0.50000  0.78098  0.25000  Biso   1.000  Ru
  Cd3      1.0000 0.50000  0.88026  0.75000  Biso   1.000  Cd
  Cl9      1.0000 0.50000  0.77814  0.75000  Biso   1.000  Cl
  Cl10     1.0000 0.12751  0.43939  0.77335  Biso   1.000  Cl
  N25      1.0000 0.00820  0.21980  0.18040  Biso   1.000  N
  N26      1.0000 0.00040  0.34640  0.31450  Biso   1.000  N
  N27      1.0000 0.99280  0.37840  0.63110  Biso   1.000  N
  C133     1.0000 0.23740  0.23010  0.22850  Biso   1.000  C
  C134     1.0000 0.29910  0.26070  0.27500  Biso   1.000  C
  H91      1.0000 0.35740  0.25510  0.27800  Biso   1.000  H
  C135     1.0000 0.27540  0.29960  0.31690  Biso   1.000  C
  H92      1.0000 0.31750  0.32050  0.34870  Biso   1.000  H
  C136     1.0000 0.19000  0.30780  0.31240  Biso   1.000  C
  H93      1.0000 0.17380  0.33430  0.34110  Biso   1.000  H
  N28      1.0000 0.12840  0.27720  0.26600  Biso   1.000  N
  C137     1.0000 0.15210  0.23840  0.22400  Biso   1.000  C
  C138     1.0000 0.25970  0.18760  0.18460  Biso   1.000  C
  H94      1.0000 0.31720  0.17940  0.18690  Biso   1.000  H
  C139     1.0000 0.20000  0.16270  0.14420  Biso   1.000  C
  H95      1.0000 0.21380  0.13630  0.11420  Biso   1.000  H
  C140     1.0000 0.11320  0.17080  0.13960  Biso   1.000  C
  C141     1.0000 0.04370  0.14090  0.09460  Biso   1.000  C
  H96      1.0000 0.05450  0.11460  0.06310  Biso   1.000  H
  C142     1.0000 0.96560  0.15020  0.09710  Biso   1.000  C
  H97      1.0000 0.92080  0.12880  0.06890  Biso   1.000  H
  C143     1.0000 0.94640  0.19080  0.14030  Biso   1.000  C
  H98      1.0000 0.88920  0.19720  0.14040  Biso   1.000  H
  C144     1.0000 0.09070  0.20820  0.17990  Biso   1.000  C
  C145     1.0000 0.99750  0.39690  0.28600  Biso   1.000  C
  C146     1.0000 0.99330  0.44220  0.32150  Biso   1.000  C
  H99      1.0000 0.99080  0.47750  0.30040  Biso   1.000  H
  C147     1.0000 0.99260  0.43780  0.39030  Biso   1.000  C
  H100     1.0000 0.98900  0.47020  0.41590  Biso   1.000  H
  C148     1.0000 0.99710  0.38810  0.42070  Biso   1.000  C
  C149     1.0000 0.00020  0.34200  0.38100  Biso   1.000  C
  H101     1.0000 0.00220  0.30640  0.40110  Biso   1.000  H
  C150     1.0000 0.99510  0.38350  0.49300  Biso   1.000  C
  C151     1.0000 0.94150  0.41510  0.51750  Biso   1.000  C
  H102     1.0000 0.90350  0.43970  0.48770  Biso   1.000  H
  C152     1.0000 0.94240  0.41130  0.58670  Biso   1.000  C
  H103     1.0000 0.90420  0.43390  0.60250  Biso   1.000  H
  C153     1.0000 0.04180  0.34540  0.60500  Biso   1.000  C
  H104     1.0000 0.07600  0.31910  0.63510  Biso   1.000  H
  C154     1.0000 0.04680  0.34640  0.53850  Biso   1.000  C
  H105     1.0000 0.08440  0.32260  0.52380  Biso   1.000  H
  Cl11     1.0000 0.87249  0.43939  0.72665  Biso   1.000  Cl
  N29      1.0000 0.99180  0.21980  0.31960  Biso   1.000  N
  N30      1.0000 0.99960  0.34640  0.18550  Biso   1.000  N
  N31      1.0000 0.00720  0.37840  0.86890  Biso   1.000  N
  C155     1.0000 0.76260  0.23010  0.27150  Biso   1.000  C
  C156     1.0000 0.70090  0.26070  0.22500  Biso   1.000  C
  H106     1.0000 0.64260  0.25510  0.22200  Biso   1.000  H
  C157     1.0000 0.72460  0.29960  0.18310  Biso   1.000  C
  H107     1.0000 0.68250  0.32050  0.15130  Biso   1.000  H
  C158     1.0000 0.81000  0.30780  0.18760  Biso   1.000  C
  H108     1.0000 0.82620  0.33430  0.15890  Biso   1.000  H
  N32      1.0000 0.87160  0.27720  0.23400  Biso   1.000  N
  C159     1.0000 0.84790  0.23840  0.27600  Biso   1.000  C
  C160     1.0000 0.74030  0.18760  0.31540  Biso   1.000  C
  H109     1.0000 0.68280  0.17940  0.31310  Biso   1.000  H
  C161     1.0000 0.80000  0.16270  0.35580  Biso   1.000  C
  H110     1.0000 0.78620  0.13630  0.38580  Biso   1.000  H
  C162     1.0000 0.88680  0.17080  0.36040  Biso   1.000  C
  C163     1.0000 0.95630  0.14090  0.40540  Biso   1.000  C
  H111     1.0000 0.94550  0.11460  0.43690  Biso   1.000  H
  C164     1.0000 0.03440  0.15020  0.40290  Biso   1.000  C
  H112     1.0000 0.07920  0.12880  0.43110  Biso   1.000  H
  C165     1.0000 0.05360  0.19080  0.35970  Biso   1.000  C
  H113     1.0000 0.11080  0.19720  0.35960  Biso   1.000  H
  C166     1.0000 0.90930  0.20820  0.32010  Biso   1.000  C
  C167     1.0000 0.00250  0.39690  0.21400  Biso   1.000  C
  C168     1.0000 0.00670  0.44220  0.17850  Biso   1.000  C
  H114     1.0000 0.00920  0.47750  0.19960  Biso   1.000  H
  C169     1.0000 0.00740  0.43780  0.10970  Biso   1.000  C
  H115     1.0000 0.01100  0.47020  0.08410  Biso   1.000  H
  C170     1.0000 0.00290  0.38810  0.07930  Biso   1.000  C
  C171     1.0000 0.99980  0.34200  0.11900  Biso   1.000  C
  H116     1.0000 0.99780  0.30640  0.09890  Biso   1.000  H
  C172     1.0000 0.00490  0.38350  0.00700  Biso   1.000  C
  C173     1.0000 0.05850  0.41510  0.98250  Biso   1.000  C
  H117     1.0000 0.09650  0.43970  0.01230  Biso   1.000  H
  C174     1.0000 0.05760  0.41130  0.91330  Biso   1.000  C
  H118     1.0000 0.09580  0.43390  0.89750  Biso   1.000  H
  C175     1.0000 0.95820  0.34540  0.89500  Biso   1.000  C
  H119     1.0000 0.92400  0.31910  0.86490  Biso   1.000  H
  C176     1.0000 0.95320  0.34640  0.96150  Biso   1.000  C
  H120     1.0000 0.91560  0.32260  0.97620  Biso   1.000  H
  Ru4      1.0000 0.00000  0.28098  0.25000  Biso   1.000  Ru
  Cd4      1.0000 0.00000  0.38026  0.75000  Biso   1.000  Cd
  Cl12     1.0000 0.00000  0.27814  0.75000  Biso   1.000  Cl
