data_image0
_cell_length_a       20.562
_cell_length_b       9.212
_cell_length_c       15.038
_cell_angle_alpha    90
_cell_angle_beta     90
_cell_angle_gamma    90

_symmetry_space_group_name_H-M    "P 1"
_symmetry_int_tables_number       1

loop_
  _symmetry_equiv_pos_as_xyz
  'x, y, z'

loop_
  _atom_site_label
  _atom_site_occupancy
  _atom_site_fract_x
  _atom_site_fract_y
  _atom_site_fract_z
  _atom_site_thermal_displace_type
  _atom_site_B_iso_or_equiv
  _atom_site_type_symbol
  Ag1      1.0000 0.71390  0.56628  0.64233  Biso   1.000  Ag
  S1       1.0000 0.72652  0.44940  0.27861  Biso   1.000  S
  N1       1.0000 0.75870  0.47630  0.50110  Biso   1.000  N
  C1       1.0000 0.65430  0.37030  0.45640  Biso   1.000  C
  H1       1.0000 0.64430  0.29580  0.41200  Biso   1.000  H
  N2       1.0000 0.61520  0.33870  0.53500  Biso   1.000  N
  F1       1.0000 0.56870  0.09610  0.42550  Biso   1.000  F
  N3       1.0000 0.63000  0.40400  0.61490  Biso   1.000  N
  N4       1.0000 0.72390  0.35600  0.47890  Biso   1.000  N
  C2       1.0000 0.64000  0.51800  0.41400  Biso   1.000  C
  C3       1.0000 0.55780  0.26960  0.53900  Biso   1.000  C
  F2       1.0000 0.47480  0.12360  0.48720  Biso   1.000  F
  C4       1.0000 0.65430  0.69720  0.29690  Biso   1.000  C
  H2       1.0000 0.67370  0.72610  0.24390  Biso   1.000  H
  F3       1.0000 0.51170  0.28350  0.39730  Biso   1.000  F
  C5       1.0000 0.57990  0.42210  0.76370  Biso   1.000  C
  H3       1.0000 0.62090  0.39970  0.79100  Biso   1.000  H
  H4       1.0000 0.54550  0.37540  0.79610  Biso   1.000  H
  H5       1.0000 0.57320  0.52520  0.76430  Biso   1.000  H
  C6       1.0000 0.53420  0.28750  0.62360  Biso   1.000  C
  H6       1.0000 0.49520  0.25220  0.64620  Biso   1.000  H
  C7       1.0000 0.57990  0.36820  0.66830  Biso   1.000  C
  C8       1.0000 0.52860  0.19250  0.46320  Biso   1.000  C
  F4       1.0000 0.86980  0.59730  0.59130  Biso   1.000  F
  C9       1.0000 0.67890  0.30740  0.23160  Biso   1.000  C
  C10      1.0000 0.66890  0.56100  0.33430  Biso   1.000  C
  F5       1.0000 0.87870  0.62450  0.45410  Biso   1.000  F
  C11      1.0000 0.61130  0.78620  0.33950  Biso   1.000  C
  H7       1.0000 0.60220  0.87700  0.31550  Biso   1.000  H
  C12      1.0000 0.81950  0.42920  0.50020  Biso   1.000  C
  C13      1.0000 0.71260  0.18530  0.20260  Biso   1.000  C
  H8       1.0000 0.75760  0.18110  0.20840  Biso   1.000  H
  C14      1.0000 0.59460  0.61160  0.45410  Biso   1.000  C
  H9       1.0000 0.57350  0.58290  0.50590  Biso   1.000  H
  C15      1.0000 0.61260  0.31390  0.22360  Biso   1.000  C
  H10      1.0000 0.58970  0.39560  0.24220  Biso   1.000  H
  C16      1.0000 0.87180  0.53500  0.51590  Biso   1.000  C
  C17      1.0000 0.76190  0.23770  0.46580  Biso   1.000  C
  C18      1.0000 0.57960  0.19310  0.18620  Biso   1.000  C
  H11      1.0000 0.53450  0.19360  0.18120  Biso   1.000  H
  C19      1.0000 0.58100  0.74420  0.41790  Biso   1.000  C
  H12      1.0000 0.55150  0.80610  0.44570  Biso   1.000  H
  C20      1.0000 0.73620  0.09190  0.44310  Biso   1.000  C
  H13      1.0000 0.70550  0.06210  0.48750  Biso   1.000  H
  H14      1.0000 0.77150  0.02360  0.44080  Biso   1.000  H
  H15      1.0000 0.71510  0.09570  0.38620  Biso   1.000  H
  C21      1.0000 0.82390  0.28350  0.47890  Biso   1.000  C
  H16      1.0000 0.86160  0.22830  0.47440  Biso   1.000  H
  C22      1.0000 0.67950  0.07100  0.16520  Biso   1.000  C
  H17      1.0000 0.70230  0.99020  0.14520  Biso   1.000  H
  C23      1.0000 0.61490  0.07490  0.15730  Biso   1.000  C
  H18      1.0000 0.59330  0.99650  0.13190  Biso   1.000  H
  F6       1.0000 0.93050  0.46680  0.51730  Biso   1.000  F
  Ag2      1.0000 0.78610  0.56628  0.14233  Biso   1.000  Ag
  S2       1.0000 0.77348  0.44940  0.77861  Biso   1.000  S
  N5       1.0000 0.74130  0.47630  0.00110  Biso   1.000  N
  C24      1.0000 0.84570  0.37030  0.95640  Biso   1.000  C
  H19      1.0000 0.85570  0.29580  0.91200  Biso   1.000  H
  N6       1.0000 0.88480  0.33870  0.03500  Biso   1.000  N
  F7       1.0000 0.93130  0.09610  0.92550  Biso   1.000  F
  N7       1.0000 0.87000  0.40400  0.11490  Biso   1.000  N
  N8       1.0000 0.77610  0.35600  0.97890  Biso   1.000  N
  C25      1.0000 0.86000  0.51800  0.91400  Biso   1.000  C
  C26      1.0000 0.94220  0.26960  0.03900  Biso   1.000  C
  F8       1.0000 0.02520  0.12360  0.98720  Biso   1.000  F
  C27      1.0000 0.84570  0.69720  0.79690  Biso   1.000  C
  H20      1.0000 0.82630  0.72610  0.74390  Biso   1.000  H
  F9       1.0000 0.98830  0.28350  0.89730  Biso   1.000  F
  C28      1.0000 0.92010  0.42210  0.26370  Biso   1.000  C
  H21      1.0000 0.87910  0.39970  0.29100  Biso   1.000  H
  H22      1.0000 0.95450  0.37540  0.29610  Biso   1.000  H
  H23      1.0000 0.92680  0.52520  0.26430  Biso   1.000  H
  C29      1.0000 0.96580  0.28750  0.12360  Biso   1.000  C
  H24      1.0000 0.00480  0.25220  0.14620  Biso   1.000  H
  C30      1.0000 0.92010  0.36820  0.16830  Biso   1.000  C
  C31      1.0000 0.97140  0.19250  0.96320  Biso   1.000  C
  F10      1.0000 0.63020  0.59730  0.09130  Biso   1.000  F
  C32      1.0000 0.82110  0.30740  0.73160  Biso   1.000  C
  C33      1.0000 0.83110  0.56100  0.83430  Biso   1.000  C
  F11      1.0000 0.62130  0.62450  0.95410  Biso   1.000  F
  C34      1.0000 0.88870  0.78620  0.83950  Biso   1.000  C
  H25      1.0000 0.89780  0.87700  0.81550  Biso   1.000  H
  C35      1.0000 0.68050  0.42920  0.00020  Biso   1.000  C
  C36      1.0000 0.78740  0.18530  0.70260  Biso   1.000  C
  H26      1.0000 0.74240  0.18110  0.70840  Biso   1.000  H
  C37      1.0000 0.90540  0.61160  0.95410  Biso   1.000  C
  H27      1.0000 0.92650  0.58290  0.00590  Biso   1.000  H
  C38      1.0000 0.88740  0.31390  0.72360  Biso   1.000  C
  H28      1.0000 0.91030  0.39560  0.74220  Biso   1.000  H
  C39      1.0000 0.62820  0.53500  0.01590  Biso   1.000  C
  C40      1.0000 0.73810  0.23770  0.96580  Biso   1.000  C
  C41      1.0000 0.92040  0.19310  0.68620  Biso   1.000  C
  H29      1.0000 0.96550  0.19360  0.68120  Biso   1.000  H
  C42      1.0000 0.91900  0.74420  0.91790  Biso   1.000  C
  H30      1.0000 0.94850  0.80610  0.94570  Biso   1.000  H
  C43      1.0000 0.76380  0.09190  0.94310  Biso   1.000  C
  H31      1.0000 0.79450  0.06210  0.98750  Biso   1.000  H
  H32      1.0000 0.72850  0.02360  0.94080  Biso   1.000  H
  H33      1.0000 0.78490  0.09570  0.88620  Biso   1.000  H
  C44      1.0000 0.67610  0.28350  0.97890  Biso   1.000  C
  H34      1.0000 0.63840  0.22830  0.97440  Biso   1.000  H
  C45      1.0000 0.82050  0.07100  0.66520  Biso   1.000  C
  H35      1.0000 0.79770  0.99020  0.64520  Biso   1.000  H
  C46      1.0000 0.88510  0.07490  0.65730  Biso   1.000  C
  H36      1.0000 0.90670  0.99650  0.63190  Biso   1.000  H
  F12      1.0000 0.56950  0.46680  0.01730  Biso   1.000  F
  Ag3      1.0000 0.28610  0.43372  0.14233  Biso   1.000  Ag
  S3       1.0000 0.27348  0.55060  0.77861  Biso   1.000  S
  N9       1.0000 0.24130  0.52370  0.00110  Biso   1.000  N
  C47      1.0000 0.34570  0.62970  0.95640  Biso   1.000  C
  H37      1.0000 0.35570  0.70420  0.91200  Biso   1.000  H
  N10      1.0000 0.38480  0.66130  0.03500  Biso   1.000  N
  F13      1.0000 0.43130  0.90390  0.92550  Biso   1.000  F
  N11      1.0000 0.37000  0.59600  0.11490  Biso   1.000  N
  N12      1.0000 0.27610  0.64400  0.97890  Biso   1.000  N
  C48      1.0000 0.36000  0.48200  0.91400  Biso   1.000  C
  C49      1.0000 0.44220  0.73040  0.03900  Biso   1.000  C
  F14      1.0000 0.52520  0.87640  0.98720  Biso   1.000  F
  C50      1.0000 0.34570  0.30280  0.79690  Biso   1.000  C
  H38      1.0000 0.32630  0.27390  0.74390  Biso   1.000  H
  F15      1.0000 0.48830  0.71650  0.89730  Biso   1.000  F
  C51      1.0000 0.42010  0.57790  0.26370  Biso   1.000  C
  H39      1.0000 0.37910  0.60030  0.29100  Biso   1.000  H
  H40      1.0000 0.45450  0.62460  0.29610  Biso   1.000  H
  H41      1.0000 0.42680  0.47480  0.26430  Biso   1.000  H
  C52      1.0000 0.46580  0.71250  0.12360  Biso   1.000  C
  H42      1.0000 0.50480  0.74780  0.14620  Biso   1.000  H
  C53      1.0000 0.42010  0.63180  0.16830  Biso   1.000  C
  C54      1.0000 0.47140  0.80750  0.96320  Biso   1.000  C
  F16      1.0000 0.13020  0.40270  0.09130  Biso   1.000  F
  C55      1.0000 0.32110  0.69260  0.73160  Biso   1.000  C
  C56      1.0000 0.33110  0.43900  0.83430  Biso   1.000  C
  F17      1.0000 0.12130  0.37550  0.95410  Biso   1.000  F
  C57      1.0000 0.38870  0.21380  0.83950  Biso   1.000  C
  H43      1.0000 0.39780  0.12300  0.81550  Biso   1.000  H
  C58      1.0000 0.18050  0.57080  0.00020  Biso   1.000  C
  C59      1.0000 0.28740  0.81470  0.70260  Biso   1.000  C
  H44      1.0000 0.24240  0.81890  0.70840  Biso   1.000  H
  C60      1.0000 0.40540  0.38840  0.95410  Biso   1.000  C
  H45      1.0000 0.42650  0.41710  0.00590  Biso   1.000  H
  C61      1.0000 0.38740  0.68610  0.72360  Biso   1.000  C
  H46      1.0000 0.41030  0.60440  0.74220  Biso   1.000  H
  C62      1.0000 0.12820  0.46500  0.01590  Biso   1.000  C
  C63      1.0000 0.23810  0.76230  0.96580  Biso   1.000  C
  C64      1.0000 0.42040  0.80690  0.68620  Biso   1.000  C
  H47      1.0000 0.46550  0.80640  0.68120  Biso   1.000  H
  C65      1.0000 0.41900  0.25580  0.91790  Biso   1.000  C
  H48      1.0000 0.44850  0.19390  0.94570  Biso   1.000  H
  C66      1.0000 0.26380  0.90810  0.94310  Biso   1.000  C
  H49      1.0000 0.29450  0.93790  0.98750  Biso   1.000  H
  H50      1.0000 0.22850  0.97640  0.94080  Biso   1.000  H
  H51      1.0000 0.28490  0.90430  0.88620  Biso   1.000  H
  C67      1.0000 0.17610  0.71650  0.97890  Biso   1.000  C
  H52      1.0000 0.13840  0.77170  0.97440  Biso   1.000  H
  C68      1.0000 0.32050  0.92900  0.66520  Biso   1.000  C
  H53      1.0000 0.29770  0.00980  0.64520  Biso   1.000  H
  C69      1.0000 0.38510  0.92510  0.65730  Biso   1.000  C
  H54      1.0000 0.40670  0.00350  0.63190  Biso   1.000  H
  F18      1.0000 0.06950  0.53320  0.01730  Biso   1.000  F
  Ag4      1.0000 0.21390  0.43372  0.64233  Biso   1.000  Ag
  S4       1.0000 0.22652  0.55060  0.27861  Biso   1.000  S
  N13      1.0000 0.25870  0.52370  0.50110  Biso   1.000  N
  C70      1.0000 0.15430  0.62970  0.45640  Biso   1.000  C
  H55      1.0000 0.14430  0.70420  0.41200  Biso   1.000  H
  N14      1.0000 0.11520  0.66130  0.53500  Biso   1.000  N
  F19      1.0000 0.06870  0.90390  0.42550  Biso   1.000  F
  N15      1.0000 0.13000  0.59600  0.61490  Biso   1.000  N
  N16      1.0000 0.22390  0.64400  0.47890  Biso   1.000  N
  C71      1.0000 0.14000  0.48200  0.41400  Biso   1.000  C
  C72      1.0000 0.05780  0.73040  0.53900  Biso   1.000  C
  F20      1.0000 0.97480  0.87640  0.48720  Biso   1.000  F
  C73      1.0000 0.15430  0.30280  0.29690  Biso   1.000  C
  H56      1.0000 0.17370  0.27390  0.24390  Biso   1.000  H
  F21      1.0000 0.01170  0.71650  0.39730  Biso   1.000  F
  C74      1.0000 0.07990  0.57790  0.76370  Biso   1.000  C
  H57      1.0000 0.12090  0.60030  0.79100  Biso   1.000  H
  H58      1.0000 0.04550  0.62460  0.79610  Biso   1.000  H
  H59      1.0000 0.07320  0.47480  0.76430  Biso   1.000  H
  C75      1.0000 0.03420  0.71250  0.62360  Biso   1.000  C
  H60      1.0000 0.99520  0.74780  0.64620  Biso   1.000  H
  C76      1.0000 0.07990  0.63180  0.66830  Biso   1.000  C
  C77      1.0000 0.02860  0.80750  0.46320  Biso   1.000  C
  F22      1.0000 0.36980  0.40270  0.59130  Biso   1.000  F
  C78      1.0000 0.17890  0.69260  0.23160  Biso   1.000  C
  C79      1.0000 0.16890  0.43900  0.33430  Biso   1.000  C
  F23      1.0000 0.37870  0.37550  0.45410  Biso   1.000  F
  C80      1.0000 0.11130  0.21380  0.33950  Biso   1.000  C
  H61      1.0000 0.10220  0.12300  0.31550  Biso   1.000  H
  C81      1.0000 0.31950  0.57080  0.50020  Biso   1.000  C
  C82      1.0000 0.21260  0.81470  0.20260  Biso   1.000  C
  H62      1.0000 0.25760  0.81890  0.20840  Biso   1.000  H
  C83      1.0000 0.09460  0.38840  0.45410  Biso   1.000  C
  H63      1.0000 0.07350  0.41710  0.50590  Biso   1.000  H
  C84      1.0000 0.11260  0.68610  0.22360  Biso   1.000  C
  H64      1.0000 0.08970  0.60440  0.24220  Biso   1.000  H
  C85      1.0000 0.37180  0.46500  0.51590  Biso   1.000  C
  C86      1.0000 0.26190  0.76230  0.46580  Biso   1.000  C
  C87      1.0000 0.07960  0.80690  0.18620  Biso   1.000  C
  H65      1.0000 0.03450  0.80640  0.18120  Biso   1.000  H
  C88      1.0000 0.08100  0.25580  0.41790  Biso   1.000  C
  H66      1.0000 0.05150  0.19390  0.44570  Biso   1.000  H
  C89      1.0000 0.23620  0.90810  0.44310  Biso   1.000  C
  H67      1.0000 0.20550  0.93790  0.48750  Biso   1.000  H
  H68      1.0000 0.27150  0.97640  0.44080  Biso   1.000  H
  H69      1.0000 0.21510  0.90430  0.38620  Biso   1.000  H
  C90      1.0000 0.32390  0.71650  0.47890  Biso   1.000  C
  H70      1.0000 0.36160  0.77170  0.47440  Biso   1.000  H
  C91      1.0000 0.17950  0.92900  0.16520  Biso   1.000  C
  H71      1.0000 0.20230  0.00980  0.14520  Biso   1.000  H
  C92      1.0000 0.11490  0.92510  0.15730  Biso   1.000  C
  H72      1.0000 0.09330  0.00350  0.13190  Biso   1.000  H
  F24      1.0000 0.43050  0.53320  0.51730  Biso   1.000  F
