data_image0
_cell_length_a       7.0884
_cell_length_b       11.1739
_cell_length_c       23.9893
_cell_angle_alpha    90
_cell_angle_beta     92.168
_cell_angle_gamma    90

_symmetry_space_group_name_H-M    "P 1"
_symmetry_int_tables_number       1

loop_
  _symmetry_equiv_pos_as_xyz
  'x, y, z'

loop_
  _atom_site_label
  _atom_site_occupancy
  _atom_site_fract_x
  _atom_site_fract_y
  _atom_site_fract_z
  _atom_site_thermal_displace_type
  _atom_site_B_iso_or_equiv
  _atom_site_type_symbol
  Cu1      1.0000 0.37829  0.14356  0.37803  Biso   1.000  Cu
  N1       1.0000 0.37850  0.96167  0.37648  Biso   1.000  N
  N2       1.0000 0.37970  0.32625  0.37598  Biso   1.000  N
  C1       1.0000 0.33940  0.89819  0.42220  Biso   1.000  C
  H1       1.0000 0.31330  0.93930  0.45470  Biso   1.000  H
  C2       1.0000 0.33620  0.77538  0.42307  Biso   1.000  C
  H2       1.0000 0.30780  0.73540  0.45570  Biso   1.000  H
  C3       1.0000 0.37520  0.71020  0.37532  Biso   1.000  C
  C4       1.0000 0.41330  0.77690  0.32790  Biso   1.000  C
  H3       1.0000 0.43860  0.73810  0.29470  Biso   1.000  H
  C5       1.0000 0.41370  0.89966  0.33015  Biso   1.000  C
  H4       1.0000 0.43970  0.94190  0.29790  Biso   1.000  H
  C6       1.0000 0.37660  0.57796  0.37522  Biso   1.000  C
  C7       1.0000 0.41090  0.39017  0.42285  Biso   1.000  C
  H5       1.0000 0.43440  0.34930  0.45620  Biso   1.000  H
  C8       1.0000 0.34390  0.51111  0.32665  Biso   1.000  C
  H6       1.0000 0.32050  0.54980  0.29280  Biso   1.000  H
  C9       1.0000 0.40960  0.51265  0.42380  Biso   1.000  C
  H7       1.0000 0.43110  0.55260  0.45750  Biso   1.000  H
  C10      1.0000 0.34630  0.38840  0.32883  Biso   1.000  C
  H8       1.0000 0.32350  0.34610  0.29590  Biso   1.000  H
  Cu2      1.0000 0.62171  0.64356  0.12197  Biso   1.000  Cu
  N3       1.0000 0.62150  0.46167  0.12352  Biso   1.000  N
  N4       1.0000 0.62030  0.82625  0.12402  Biso   1.000  N
  C11      1.0000 0.66060  0.39819  0.07780  Biso   1.000  C
  H9       1.0000 0.68670  0.43930  0.04530  Biso   1.000  H
  C12      1.0000 0.66380  0.27538  0.07693  Biso   1.000  C
  H10      1.0000 0.69220  0.23540  0.04430  Biso   1.000  H
  C13      1.0000 0.62480  0.21020  0.12468  Biso   1.000  C
  C14      1.0000 0.58670  0.27690  0.17210  Biso   1.000  C
  H11      1.0000 0.56140  0.23810  0.20530  Biso   1.000  H
  C15      1.0000 0.58630  0.39966  0.16985  Biso   1.000  C
  H12      1.0000 0.56030  0.44190  0.20210  Biso   1.000  H
  C16      1.0000 0.62340  0.07796  0.12478  Biso   1.000  C
  C17      1.0000 0.58910  0.89017  0.07715  Biso   1.000  C
  H13      1.0000 0.56560  0.84930  0.04380  Biso   1.000  H
  C18      1.0000 0.65610  0.01111  0.17335  Biso   1.000  C
  H14      1.0000 0.67950  0.04980  0.20720  Biso   1.000  H
  C19      1.0000 0.59040  0.01265  0.07620  Biso   1.000  C
  H15      1.0000 0.56890  0.05260  0.04250  Biso   1.000  H
  C20      1.0000 0.65370  0.88840  0.17117  Biso   1.000  C
  H16      1.0000 0.67650  0.84610  0.20410  Biso   1.000  H
  Cu3      1.0000 0.62171  0.85644  0.62197  Biso   1.000  Cu
  N5       1.0000 0.62150  0.03833  0.62352  Biso   1.000  N
  N6       1.0000 0.62030  0.67375  0.62402  Biso   1.000  N
  C21      1.0000 0.66060  0.10181  0.57780  Biso   1.000  C
  H17      1.0000 0.68670  0.06070  0.54530  Biso   1.000  H
  C22      1.0000 0.66380  0.22462  0.57693  Biso   1.000  C
  H18      1.0000 0.69220  0.26460  0.54430  Biso   1.000  H
  C23      1.0000 0.62480  0.28980  0.62468  Biso   1.000  C
  C24      1.0000 0.58670  0.22310  0.67210  Biso   1.000  C
  H19      1.0000 0.56140  0.26190  0.70530  Biso   1.000  H
  C25      1.0000 0.58630  0.10034  0.66985  Biso   1.000  C
  H20      1.0000 0.56030  0.05810  0.70210  Biso   1.000  H
  C26      1.0000 0.62340  0.42204  0.62478  Biso   1.000  C
  C27      1.0000 0.58910  0.60983  0.57715  Biso   1.000  C
  H21      1.0000 0.56560  0.65070  0.54380  Biso   1.000  H
  C28      1.0000 0.65610  0.48889  0.67335  Biso   1.000  C
  H22      1.0000 0.67950  0.45020  0.70720  Biso   1.000  H
  C29      1.0000 0.59040  0.48735  0.57620  Biso   1.000  C
  H23      1.0000 0.56890  0.44740  0.54250  Biso   1.000  H
  C30      1.0000 0.65370  0.61160  0.67117  Biso   1.000  C
  H24      1.0000 0.67650  0.65390  0.70410  Biso   1.000  H
  Cu4      1.0000 0.37829  0.35644  0.87803  Biso   1.000  Cu
  N7       1.0000 0.37850  0.53833  0.87648  Biso   1.000  N
  N8       1.0000 0.37970  0.17375  0.87598  Biso   1.000  N
  C31      1.0000 0.33940  0.60181  0.92220  Biso   1.000  C
  H25      1.0000 0.31330  0.56070  0.95470  Biso   1.000  H
  C32      1.0000 0.33620  0.72462  0.92307  Biso   1.000  C
  H26      1.0000 0.30780  0.76460  0.95570  Biso   1.000  H
  C33      1.0000 0.37520  0.78980  0.87532  Biso   1.000  C
  C34      1.0000 0.41330  0.72310  0.82790  Biso   1.000  C
  H27      1.0000 0.43860  0.76190  0.79470  Biso   1.000  H
  C35      1.0000 0.41370  0.60034  0.83015  Biso   1.000  C
  H28      1.0000 0.43970  0.55810  0.79790  Biso   1.000  H
  C36      1.0000 0.37660  0.92204  0.87522  Biso   1.000  C
  C37      1.0000 0.41090  0.10983  0.92285  Biso   1.000  C
  H29      1.0000 0.43440  0.15070  0.95620  Biso   1.000  H
  C38      1.0000 0.34390  0.98889  0.82665  Biso   1.000  C
  H30      1.0000 0.32050  0.95020  0.79280  Biso   1.000  H
  C39      1.0000 0.40960  0.98735  0.92380  Biso   1.000  C
  H31      1.0000 0.43110  0.94740  0.95750  Biso   1.000  H
  C40      1.0000 0.34630  0.11160  0.82883  Biso   1.000  C
  H32      1.0000 0.32350  0.15390  0.79590  Biso   1.000  H
