data_image0
_cell_length_a       9.098
_cell_length_b       11.717
_cell_length_c       14.371
_cell_angle_alpha    87.015
_cell_angle_beta     80.229
_cell_angle_gamma    86.041

_symmetry_space_group_name_H-M    "P 1"
_symmetry_int_tables_number       1

loop_
  _symmetry_equiv_pos_as_xyz
  'x, y, z'

loop_
  _atom_site_label
  _atom_site_occupancy
  _atom_site_fract_x
  _atom_site_fract_y
  _atom_site_fract_z
  _atom_site_thermal_displace_type
  _atom_site_B_iso_or_equiv
  _atom_site_type_symbol
  Sm1      1.0000 0.51032  0.25225  0.87350  Biso   1.000  Sm
  Sm2      1.0000 0.56022  0.35792  0.43059  Biso   1.000  Sm
  O1       1.0000 0.32190  0.28030  0.52660  Biso   1.000  O
  O2       1.0000 0.26160  0.36550  0.87280  Biso   1.000  O
  O3       1.0000 0.77080  0.22930  0.90200  Biso   1.000  O
  O4       1.0000 0.36890  0.28760  0.74050  Biso   1.000  O
  O5       1.0000 0.31980  0.17300  0.00330  Biso   1.000  O
  O6       1.0000 0.66780  0.54670  0.62050  Biso   1.000  O
  O7       1.0000 0.60890  0.42490  0.80490  Biso   1.000  O
  O8       1.0000 0.36180  0.08260  0.87050  Biso   1.000  O
  O9       1.0000 0.73180  0.38570  0.54180  Biso   1.000  O
  O10      1.0000 0.39380  0.44050  0.57340  Biso   1.000  O
  O11      1.0000 0.62670  0.08890  0.95020  Biso   1.000  O
  C1       1.0000 0.13380  0.38630  0.73890  Biso   1.000  C
  C2       1.0000 0.74790  0.45680  0.60180  Biso   1.000  C
  C3       1.0000 0.75180  0.13090  0.93910  Biso   1.000  C
  C4       1.0000 0.87790  0.06200  0.97170  Biso   1.000  C
  C5       1.0000 0.99640  0.41740  0.79220  Biso   1.000  C
  H1       1.0000 0.98790  0.42130  0.85740  Biso   1.000  H
  O12      1.0000 0.72460  0.55500  0.86670  Biso   1.000  O
  C6       1.0000 0.72460  0.47740  0.81120  Biso   1.000  C
  C7       1.0000 0.87040  0.44310  0.74940  Biso   1.000  C
  C8       1.0000 0.88180  0.43150  0.65200  Biso   1.000  C
  C9       1.0000 0.85890  0.95710  0.02080  Biso   1.000  C
  C10      1.0000 0.28680  0.09860  0.95090  Biso   1.000  C
  C11      1.0000 0.01970  0.10450  0.95130  Biso   1.000  C
  H2       1.0000 0.03270  0.17470  0.91880  Biso   1.000  H
  C12      1.0000 0.14720  0.38350  0.64120  Biso   1.000  C
  C13      1.0000 0.02070  0.40300  0.59840  Biso   1.000  C
  H3       1.0000 0.02920  0.39700  0.53340  Biso   1.000  H
  C14      1.0000 0.29630  0.36380  0.57840  Biso   1.000  C
  C15      1.0000 0.26280  0.34630  0.78670  Biso   1.000  C
  Sm3      1.0000 0.48968  0.74775  0.12650  Biso   1.000  Sm
  Sm4      1.0000 0.43978  0.64208  0.56941  Biso   1.000  Sm
  O13      1.0000 0.67810  0.71970  0.47340  Biso   1.000  O
  O14      1.0000 0.73840  0.63450  0.12720  Biso   1.000  O
  O15      1.0000 0.22920  0.77070  0.09800  Biso   1.000  O
  O16      1.0000 0.63110  0.71240  0.25950  Biso   1.000  O
  O17      1.0000 0.68020  0.82700  0.99670  Biso   1.000  O
  O18      1.0000 0.33220  0.45330  0.37950  Biso   1.000  O
  O19      1.0000 0.39110  0.57510  0.19510  Biso   1.000  O
  O20      1.0000 0.63820  0.91740  0.12950  Biso   1.000  O
  O21      1.0000 0.26820  0.61430  0.45820  Biso   1.000  O
  O22      1.0000 0.60620  0.55950  0.42660  Biso   1.000  O
  O23      1.0000 0.37330  0.91110  0.04980  Biso   1.000  O
  C16      1.0000 0.86620  0.61370  0.26110  Biso   1.000  C
  C17      1.0000 0.25210  0.54320  0.39820  Biso   1.000  C
  C18      1.0000 0.24820  0.86910  0.06090  Biso   1.000  C
  C19      1.0000 0.12210  0.93800  0.02830  Biso   1.000  C
  C20      1.0000 0.00360  0.58260  0.20780  Biso   1.000  C
  H4       1.0000 0.01210  0.57870  0.14260  Biso   1.000  H
  O24      1.0000 0.27540  0.44500  0.13330  Biso   1.000  O
  C21      1.0000 0.27540  0.52260  0.18880  Biso   1.000  C
  C22      1.0000 0.12960  0.55690  0.25060  Biso   1.000  C
  C23      1.0000 0.11820  0.56850  0.34800  Biso   1.000  C
  C24      1.0000 0.14110  0.04290  0.97920  Biso   1.000  C
  C25      1.0000 0.71320  0.90140  0.04910  Biso   1.000  C
  C26      1.0000 0.98030  0.89550  0.04870  Biso   1.000  C
  H5       1.0000 0.96730  0.82530  0.08120  Biso   1.000  H
  C27      1.0000 0.85280  0.61650  0.35880  Biso   1.000  C
  C28      1.0000 0.97930  0.59700  0.40160  Biso   1.000  C
  H6       1.0000 0.97080  0.60300  0.46660  Biso   1.000  H
  C29      1.0000 0.70370  0.63620  0.42160  Biso   1.000  C
  C30      1.0000 0.73720  0.65370  0.21330  Biso   1.000  C
