data_image0
_cell_length_a       9.7193
_cell_length_b       23.1092
_cell_length_c       7.193
_cell_angle_alpha    90
_cell_angle_beta     131.006
_cell_angle_gamma    90

_symmetry_space_group_name_H-M    "P 1"
_symmetry_int_tables_number       1

loop_
  _symmetry_equiv_pos_as_xyz
  'x, y, z'

loop_
  _atom_site_label
  _atom_site_occupancy
  _atom_site_fract_x
  _atom_site_fract_y
  _atom_site_fract_z
  _atom_site_thermal_displace_type
  _atom_site_B_iso_or_equiv
  _atom_site_type_symbol
  C1       1.0000 0.34490  0.45616  0.56290  Biso   1.000  C
  C2       1.0000 0.34670  0.51647  0.56410  Biso   1.000  C
  F1       1.0000 0.19160  0.42986  0.37320  Biso   1.000  F
  F2       1.0000 0.19450  0.54356  0.37140  Biso   1.000  F
  O1       1.0000 0.35170  0.33512  0.66030  Biso   1.000  O
  O2       1.0000 0.36110  0.63775  0.69320  Biso   1.000  O
  H1       1.0000 0.99900  0.32200  0.19000  Biso   1.000  H
  C3       1.0000 0.65510  0.45616  0.93710  Biso   1.000  C
  C4       1.0000 0.65330  0.51647  0.93590  Biso   1.000  C
  F3       1.0000 0.80840  0.42986  0.12680  Biso   1.000  F
  F4       1.0000 0.80550  0.54356  0.12860  Biso   1.000  F
  O3       1.0000 0.64830  0.33512  0.83970  Biso   1.000  O
  O4       1.0000 0.63890  0.63775  0.80680  Biso   1.000  O
  H2       1.0000 0.00100  0.32200  0.31000  Biso   1.000  H
  C5       1.0000 0.15510  0.04384  0.43710  Biso   1.000  C
  C6       1.0000 0.15330  0.98353  0.43590  Biso   1.000  C
  F5       1.0000 0.30840  0.07014  0.62680  Biso   1.000  F
  F6       1.0000 0.30550  0.95644  0.62860  Biso   1.000  F
  O5       1.0000 0.14830  0.16488  0.33970  Biso   1.000  O
  O6       1.0000 0.13890  0.86225  0.30680  Biso   1.000  O
  H3       1.0000 0.50100  0.17800  0.81000  Biso   1.000  H
  C7       1.0000 0.84490  0.04384  0.06290  Biso   1.000  C
  C8       1.0000 0.84670  0.98353  0.06410  Biso   1.000  C
  F7       1.0000 0.69160  0.07014  0.87320  Biso   1.000  F
  F8       1.0000 0.69450  0.95644  0.87140  Biso   1.000  F
  O7       1.0000 0.85170  0.16488  0.16030  Biso   1.000  O
  O8       1.0000 0.86110  0.86225  0.19320  Biso   1.000  O
  H4       1.0000 0.49900  0.17800  0.69000  Biso   1.000  H
  C9       1.0000 0.50000  0.35940  0.75000  Biso   1.000  C
  C10      1.0000 0.50000  0.42470  0.75000  Biso   1.000  C
  C11      1.0000 0.50000  0.54790  0.75000  Biso   1.000  C
  C12      1.0000 0.50000  0.61410  0.75000  Biso   1.000  C
  C13      1.0000 0.00000  0.14060  0.25000  Biso   1.000  C
  C14      1.0000 0.00000  0.07530  0.25000  Biso   1.000  C
  C15      1.0000 0.00000  0.95210  0.25000  Biso   1.000  C
  C16      1.0000 0.00000  0.88590  0.25000  Biso   1.000  C
  In1      1.0000 0.25000  0.25000  0.50000  Biso   1.000  In
  In2      1.0000 0.75000  0.25000  0.00000  Biso   1.000  In
  O9       1.0000 0.00000  0.29212  0.25000  Biso   1.000  O
  O10      1.0000 0.50000  0.20788  0.75000  Biso   1.000  O
  C17      1.0000 0.84490  0.95616  0.56290  Biso   1.000  C
  C18      1.0000 0.84670  0.01647  0.56410  Biso   1.000  C
  F9       1.0000 0.69160  0.92986  0.37320  Biso   1.000  F
  F10      1.0000 0.69450  0.04356  0.37140  Biso   1.000  F
  O11      1.0000 0.85170  0.83512  0.66030  Biso   1.000  O
  O12      1.0000 0.86110  0.13775  0.69320  Biso   1.000  O
  H5       1.0000 0.49900  0.82200  0.19000  Biso   1.000  H
  C19      1.0000 0.15510  0.95616  0.93710  Biso   1.000  C
  C20      1.0000 0.15330  0.01647  0.93590  Biso   1.000  C
  F11      1.0000 0.30840  0.92986  0.12680  Biso   1.000  F
  F12      1.0000 0.30550  0.04356  0.12860  Biso   1.000  F
  O13      1.0000 0.14830  0.83512  0.83970  Biso   1.000  O
  O14      1.0000 0.13890  0.13775  0.80680  Biso   1.000  O
  H6       1.0000 0.50100  0.82200  0.31000  Biso   1.000  H
  C21      1.0000 0.65510  0.54384  0.43710  Biso   1.000  C
  C22      1.0000 0.65330  0.48353  0.43590  Biso   1.000  C
  F13      1.0000 0.80840  0.57014  0.62680  Biso   1.000  F
  F14      1.0000 0.80550  0.45644  0.62860  Biso   1.000  F
  O15      1.0000 0.64830  0.66488  0.33970  Biso   1.000  O
  O16      1.0000 0.63890  0.36225  0.30680  Biso   1.000  O
  H7       1.0000 0.00100  0.67800  0.81000  Biso   1.000  H
  C23      1.0000 0.34490  0.54384  0.06290  Biso   1.000  C
  C24      1.0000 0.34670  0.48353  0.06410  Biso   1.000  C
  F15      1.0000 0.19160  0.57014  0.87320  Biso   1.000  F
  F16      1.0000 0.19450  0.45644  0.87140  Biso   1.000  F
  O17      1.0000 0.35170  0.66488  0.16030  Biso   1.000  O
  O18      1.0000 0.36110  0.36225  0.19320  Biso   1.000  O
  H8       1.0000 0.99900  0.67800  0.69000  Biso   1.000  H
  C25      1.0000 0.00000  0.85940  0.75000  Biso   1.000  C
  C26      1.0000 0.00000  0.92470  0.75000  Biso   1.000  C
  C27      1.0000 0.00000  0.04790  0.75000  Biso   1.000  C
  C28      1.0000 0.00000  0.11410  0.75000  Biso   1.000  C
  C29      1.0000 0.50000  0.64060  0.25000  Biso   1.000  C
  C30      1.0000 0.50000  0.57530  0.25000  Biso   1.000  C
  C31      1.0000 0.50000  0.45210  0.25000  Biso   1.000  C
  C32      1.0000 0.50000  0.38590  0.25000  Biso   1.000  C
  In3      1.0000 0.75000  0.75000  0.50000  Biso   1.000  In
  In4      1.0000 0.25000  0.75000  0.00000  Biso   1.000  In
  O19      1.0000 0.50000  0.79212  0.25000  Biso   1.000  O
  O20      1.0000 0.00000  0.70788  0.75000  Biso   1.000  O
