data_image0
_cell_length_a       10.766
_cell_length_b       12.993
_cell_length_c       20.035
_cell_angle_alpha    76.46
_cell_angle_beta     85.52
_cell_angle_gamma    69.16

_symmetry_space_group_name_H-M    "P 1"
_symmetry_int_tables_number       1

loop_
  _symmetry_equiv_pos_as_xyz
  'x, y, z'

loop_
  _atom_site_label
  _atom_site_occupancy
  _atom_site_fract_x
  _atom_site_fract_y
  _atom_site_fract_z
  _atom_site_thermal_displace_type
  _atom_site_B_iso_or_equiv
  _atom_site_type_symbol
  Zn1      1.0000 0.25199  0.26564  0.24625  Biso   1.000  Zn
  Zn2      1.0000 0.95759  0.32808  0.18180  Biso   1.000  Zn
  O1       1.0000 0.21410  0.41160  0.18231  Biso   1.000  O
  O2       1.0000 0.04820  0.41760  0.11968  Biso   1.000  O
  O3       1.0000 0.09530  0.28390  0.30720  Biso   1.000  O
  O4       1.0000 0.89630  0.39140  0.26250  Biso   1.000  O
  O5       1.0000 0.24890  0.13390  0.21660  Biso   1.000  O
  O6       1.0000 0.03270  0.16590  0.19861  Biso   1.000  O
  O7       1.0000 0.37400  0.25060  0.31856  Biso   1.000  O
  O8       1.0000 0.49370  0.21180  0.23000  Biso   1.000  O
  N1       1.0000 0.82030  0.45720  0.57090  Biso   1.000  N
  N2       1.0000 0.10900  0.90290  0.99160  Biso   1.000  N
  N3       1.0000 0.90500  0.11090  0.02070  Biso   1.000  N
  N4       1.0000 0.25390  0.62910  0.28690  Biso   1.000  N
  N5       1.0000 0.93140  0.12160  0.46590  Biso   1.000  N
  N6       1.0000 0.04820  0.90290  0.55900  Biso   1.000  N
  C1       1.0000 0.12990  0.45850  0.13480  Biso   1.000  C
  C2       1.0000 0.12460  0.57090  0.09459  Biso   1.000  C
  C3       1.0000 0.19880  0.62630  0.11360  Biso   1.000  C
  H1       1.0000 0.25650  0.58990  0.15220  Biso   1.000  H
  C4       1.0000 0.19240  0.73240  0.07890  Biso   1.000  C
  H2       1.0000 0.25400  0.76200  0.08700  Biso   1.000  H
  C5       1.0000 0.10200  0.78810  0.01580  Biso   1.000  C
  C6       1.0000 0.03550  0.73140  0.00190  Biso   1.000  C
  H3       1.0000 0.97700  0.76800  0.96400  Biso   1.000  H
  C7       1.0000 0.04280  0.62560  0.03700  Biso   1.000  C
  H4       1.0000 0.99140  0.58900  0.02200  Biso   1.000  H
  C8       1.0000 0.13260  0.98170  0.02980  Biso   1.000  C
  H5       1.0000 0.20470  0.93740  0.06380  Biso   1.000  H
  H6       1.0000 0.16310  0.03750  0.99680  Biso   1.000  H
  C9       1.0000 0.02400  0.03750  0.06260  Biso   1.000  C
  H7       1.0000 0.04990  0.08450  0.08730  Biso   1.000  H
  H8       1.0000 0.99870  0.98090  0.09760  Biso   1.000  H
  C10      1.0000 0.82730  0.04770  0.99940  Biso   1.000  C
  H9       1.0000 0.82670  0.98450  0.03810  Biso   1.000  H
  H10      1.0000 0.73420  0.09920  0.99030  Biso   1.000  H
  C11      1.0000 0.87990  0.00150  0.93730  Biso   1.000  C
  H11      1.0000 0.83890  0.06110  0.89650  Biso   1.000  H
  H12      1.0000 0.84810  0.93830  0.93850  Biso   1.000  H
  C12      1.0000 0.03430  0.95750  0.92570  Biso   1.000  C
  H13      1.0000 0.05670  0.90240  0.89600  Biso   1.000  H
  H14      1.0000 0.06200  0.02160  0.90180  Biso   1.000  H
  C13      1.0000 0.88600  0.20640  0.97230  Biso   1.000  C
  C14      1.0000 0.97800  0.35030  0.31220  Biso   1.000  C
  C15      1.0000 0.93530  0.37800  0.37950  Biso   1.000  C
  C16      1.0000 0.02770  0.34440  0.43260  Biso   1.000  C
  H15      1.0000 0.11800  0.30260  0.42530  Biso   1.000  H
  C17      1.0000 0.99020  0.37080  0.49480  Biso   1.000  C
  H16      1.0000 0.05560  0.34800  0.52960  Biso   1.000  H
  C18      1.0000 0.85710  0.43080  0.50870  Biso   1.000  C
  C19      1.0000 0.76460  0.46220  0.45540  Biso   1.000  C
  H17      1.0000 0.67370  0.50210  0.46300  Biso   1.000  H
  C20      1.0000 0.80260  0.43650  0.39240  Biso   1.000  C
  H18      1.0000 0.73780  0.45870  0.35730  Biso   1.000  H
  C21      1.0000 0.91540  0.40640  0.62760  Biso   1.000  C
  H19      1.0000 0.98310  0.44320  0.61990  Biso   1.000  H
  H20      1.0000 0.96160  0.32560  0.62720  Biso   1.000  H
  C22      1.0000 0.69460  0.54230  0.57990  Biso   1.000  C
  H21      1.0000 0.65880  0.58880  0.53430  Biso   1.000  H
  H22      1.0000 0.70940  0.59250  0.60630  Biso   1.000  H
  C23      1.0000 0.59000  0.49340  0.61750  Biso   1.000  C
  H23      1.0000 0.50050  0.55180  0.60880  Biso   1.000  H
  H24      1.0000 0.59180  0.42880  0.59880  Biso   1.000  H
  C24      1.0000 0.15210  0.10160  0.21570  Biso   1.000  C
  C25      1.0000 0.17660  0.97910  0.23560  Biso   1.000  C
  C26      1.0000 0.30290  0.90300  0.25160  Biso   1.000  C
  H25      1.0000 0.37400  0.93080  0.24950  Biso   1.000  H
  C27      1.0000 0.33050  0.78850  0.27040  Biso   1.000  C
  H26      1.0000 0.41920  0.73950  0.28160  Biso   1.000  H
  C28      1.0000 0.22920  0.74270  0.27340  Biso   1.000  C
  C29      1.0000 0.10020  0.82030  0.25840  Biso   1.000  C
  H27      1.0000 0.02810  0.79350  0.26100  Biso   1.000  H
  C30      1.0000 0.07550  0.93660  0.23940  Biso   1.000  C
  H28      1.0000 0.98710  0.98720  0.22900  Biso   1.000  H
  C31      1.0000 0.38510  0.54530  0.30640  Biso   1.000  C
  H29      1.0000 0.45310  0.57760  0.28510  Biso   1.000  H
  H30      1.0000 0.39640  0.47880  0.28730  Biso   1.000  H
  C32      1.0000 0.14510  0.58510  0.30190  Biso   1.000  C
  H31      1.0000 0.17840  0.50490  0.29870  Biso   1.000  H
  H32      1.0000 0.07480  0.62720  0.26660  Biso   1.000  H
  C33      1.0000 0.48420  0.21980  0.29080  Biso   1.000  C
  C34      1.0000 0.60450  0.19490  0.33300  Biso   1.000  C
  C35      1.0000 0.73220  0.16100  0.30680  Biso   1.000  C
  H33      1.0000 0.74630  0.15110  0.26090  Biso   1.000  H
  C36      1.0000 0.84320  0.14090  0.34980  Biso   1.000  C
  H34      1.0000 0.92450  0.10500  0.33100  Biso   1.000  H
  C37      1.0000 0.82400  0.14290  0.42500  Biso   1.000  C
  C38      1.0000 0.70390  0.17820  0.43830  Biso   1.000  C
  H35      1.0000 0.68480  0.18920  0.48380  Biso   1.000  H
  C39      1.0000 0.59340  0.20410  0.39880  Biso   1.000  C
  H36      1.0000 0.50760  0.22890  0.41840  Biso   1.000  H
  C40      1.0000 0.06560  0.07930  0.44450  Biso   1.000  C
  H37      1.0000 0.12490  0.07910  0.47990  Biso   1.000  H
  H38      1.0000 0.07850  0.13020  0.40140  Biso   1.000  H
  C41      1.0000 0.10360  0.96220  0.43290  Biso   1.000  C
  H39      1.0000 0.20150  0.92980  0.42920  Biso   1.000  H
  H40      1.0000 0.06470  0.96600  0.38890  Biso   1.000  H
  C42      1.0000 0.05500  0.88150  0.49250  Biso   1.000  C
  H41      1.0000 0.96560  0.88630  0.48010  Biso   1.000  H
  H42      1.0000 0.11550  0.80300  0.49450  Biso   1.000  H
  C43      1.0000 0.92300  0.97650  0.57290  Biso   1.000  C
  H43      1.0000 0.90880  0.96480  0.62310  Biso   1.000  H
  H44      1.0000 0.85290  0.96090  0.55220  Biso   1.000  H
  C44      1.0000 0.91450  0.10320  0.54200  Biso   1.000  C
  H45      1.0000 0.82730  0.15570  0.55310  Biso   1.000  H
  H46      1.0000 0.98490  0.11850  0.56260  Biso   1.000  H
  C45      1.0000 0.16550  0.86620  0.59220  Biso   1.000  C
  Zn3      1.0000 0.74801  0.73436  0.75375  Biso   1.000  Zn
  Zn4      1.0000 0.04241  0.67192  0.81820  Biso   1.000  Zn
  O9       1.0000 0.78590  0.58840  0.81769  Biso   1.000  O
  O10      1.0000 0.95180  0.58240  0.88032  Biso   1.000  O
  O11      1.0000 0.90470  0.71610  0.69280  Biso   1.000  O
  O12      1.0000 0.10370  0.60860  0.73750  Biso   1.000  O
  O13      1.0000 0.75110  0.86610  0.78340  Biso   1.000  O
  O14      1.0000 0.96730  0.83410  0.80139  Biso   1.000  O
  O15      1.0000 0.62600  0.74940  0.68144  Biso   1.000  O
  O16      1.0000 0.50630  0.78820  0.77000  Biso   1.000  O
  N7       1.0000 0.17970  0.54280  0.42910  Biso   1.000  N
  N8       1.0000 0.89100  0.09710  0.00840  Biso   1.000  N
  N9       1.0000 0.09500  0.88910  0.97930  Biso   1.000  N
  N10      1.0000 0.74610  0.37090  0.71310  Biso   1.000  N
  N11      1.0000 0.06860  0.87840  0.53410  Biso   1.000  N
  N12      1.0000 0.95180  0.09710  0.44100  Biso   1.000  N
  C46      1.0000 0.87010  0.54150  0.86520  Biso   1.000  C
  C47      1.0000 0.87540  0.42910  0.90541  Biso   1.000  C
  C48      1.0000 0.80120  0.37370  0.88640  Biso   1.000  C
  H47      1.0000 0.74350  0.41010  0.84780  Biso   1.000  H
  C49      1.0000 0.80760  0.26760  0.92110  Biso   1.000  C
  H48      1.0000 0.74600  0.23800  0.91300  Biso   1.000  H
  C50      1.0000 0.89800  0.21190  0.98420  Biso   1.000  C
  C51      1.0000 0.96450  0.26860  0.99810  Biso   1.000  C
  H49      1.0000 0.02300  0.23200  0.03600  Biso   1.000  H
  C52      1.0000 0.95720  0.37440  0.96300  Biso   1.000  C
  H50      1.0000 0.00860  0.41100  0.97800  Biso   1.000  H
  C53      1.0000 0.86740  0.01830  0.97020  Biso   1.000  C
  H51      1.0000 0.79530  0.06260  0.93620  Biso   1.000  H
  H52      1.0000 0.83690  0.96250  0.00320  Biso   1.000  H
  C54      1.0000 0.97600  0.96250  0.93740  Biso   1.000  C
  H53      1.0000 0.95010  0.91550  0.91270  Biso   1.000  H
  H54      1.0000 0.00130  0.01910  0.90240  Biso   1.000  H
  C55      1.0000 0.17270  0.95230  0.00060  Biso   1.000  C
  H55      1.0000 0.17330  0.01550  0.96190  Biso   1.000  H
  H56      1.0000 0.26580  0.90080  0.00970  Biso   1.000  H
  C56      1.0000 0.12010  0.99850  0.06270  Biso   1.000  C
  H57      1.0000 0.16110  0.93890  0.10350  Biso   1.000  H
  H58      1.0000 0.15190  0.06170  0.06150  Biso   1.000  H
  C57      1.0000 0.96570  0.04250  0.07430  Biso   1.000  C
  H59      1.0000 0.94330  0.09760  0.10400  Biso   1.000  H
  H60      1.0000 0.93800  0.97840  0.09820  Biso   1.000  H
  C58      1.0000 0.11400  0.79360  0.02770  Biso   1.000  C
  C59      1.0000 0.02200  0.64970  0.68780  Biso   1.000  C
  C60      1.0000 0.06470  0.62200  0.62050  Biso   1.000  C
  C61      1.0000 0.97230  0.65560  0.56740  Biso   1.000  C
  H61      1.0000 0.88200  0.69740  0.57470  Biso   1.000  H
  C62      1.0000 0.00980  0.62920  0.50520  Biso   1.000  C
  H62      1.0000 0.94440  0.65200  0.47040  Biso   1.000  H
  C63      1.0000 0.14290  0.56920  0.49130  Biso   1.000  C
  C64      1.0000 0.23540  0.53780  0.54460  Biso   1.000  C
  H63      1.0000 0.32630  0.49790  0.53700  Biso   1.000  H
  C65      1.0000 0.19740  0.56350  0.60760  Biso   1.000  C
  H64      1.0000 0.26220  0.54130  0.64270  Biso   1.000  H
  C66      1.0000 0.08460  0.59360  0.37240  Biso   1.000  C
  H65      1.0000 0.01690  0.55680  0.38010  Biso   1.000  H
  H66      1.0000 0.03840  0.67440  0.37280  Biso   1.000  H
  C67      1.0000 0.30540  0.45770  0.42010  Biso   1.000  C
  H67      1.0000 0.34120  0.41120  0.46570  Biso   1.000  H
  H68      1.0000 0.29060  0.40750  0.39370  Biso   1.000  H
  C68      1.0000 0.41000  0.50660  0.38250  Biso   1.000  C
  H69      1.0000 0.49950  0.44820  0.39120  Biso   1.000  H
  H70      1.0000 0.40820  0.57120  0.40120  Biso   1.000  H
  C69      1.0000 0.84790  0.89840  0.78430  Biso   1.000  C
  C70      1.0000 0.82340  0.02090  0.76440  Biso   1.000  C
  C71      1.0000 0.69710  0.09700  0.74840  Biso   1.000  C
  H71      1.0000 0.62600  0.06920  0.75050  Biso   1.000  H
  C72      1.0000 0.66950  0.21150  0.72960  Biso   1.000  C
  H72      1.0000 0.58080  0.26050  0.71840  Biso   1.000  H
  C73      1.0000 0.77080  0.25730  0.72660  Biso   1.000  C
  C74      1.0000 0.89980  0.17970  0.74160  Biso   1.000  C
  H73      1.0000 0.97190  0.20650  0.73900  Biso   1.000  H
  C75      1.0000 0.92450  0.06340  0.76060  Biso   1.000  C
  H74      1.0000 0.01290  0.01280  0.77100  Biso   1.000  H
  C76      1.0000 0.61490  0.45470  0.69360  Biso   1.000  C
  H75      1.0000 0.54690  0.42240  0.71490  Biso   1.000  H
  H76      1.0000 0.60360  0.52120  0.71270  Biso   1.000  H
  C77      1.0000 0.85490  0.41490  0.69810  Biso   1.000  C
  H77      1.0000 0.82160  0.49510  0.70130  Biso   1.000  H
  H78      1.0000 0.92520  0.37280  0.73340  Biso   1.000  H
  C78      1.0000 0.51580  0.78020  0.70920  Biso   1.000  C
  C79      1.0000 0.39550  0.80510  0.66700  Biso   1.000  C
  C80      1.0000 0.26780  0.83900  0.69320  Biso   1.000  C
  H79      1.0000 0.25370  0.84890  0.73910  Biso   1.000  H
  C81      1.0000 0.15680  0.85910  0.65020  Biso   1.000  C
  H80      1.0000 0.07550  0.89500  0.66900  Biso   1.000  H
  C82      1.0000 0.17600  0.85710  0.57500  Biso   1.000  C
  C83      1.0000 0.29610  0.82180  0.56170  Biso   1.000  C
  H81      1.0000 0.31520  0.81080  0.51620  Biso   1.000  H
  C84      1.0000 0.40660  0.79590  0.60120  Biso   1.000  C
  H82      1.0000 0.49240  0.77110  0.58160  Biso   1.000  H
  C85      1.0000 0.93440  0.92070  0.55550  Biso   1.000  C
  H83      1.0000 0.87510  0.92090  0.52010  Biso   1.000  H
  H84      1.0000 0.92150  0.86980  0.59860  Biso   1.000  H
  C86      1.0000 0.89640  0.03780  0.56710  Biso   1.000  C
  H85      1.0000 0.79850  0.07020  0.57080  Biso   1.000  H
  H86      1.0000 0.93530  0.03400  0.61110  Biso   1.000  H
  C87      1.0000 0.94500  0.11850  0.50750  Biso   1.000  C
  H87      1.0000 0.03440  0.11370  0.51990  Biso   1.000  H
  H88      1.0000 0.88450  0.19700  0.50550  Biso   1.000  H
  C88      1.0000 0.07700  0.02350  0.42710  Biso   1.000  C
  H89      1.0000 0.09120  0.03520  0.37690  Biso   1.000  H
  H90      1.0000 0.14710  0.03910  0.44780  Biso   1.000  H
  C89      1.0000 0.08550  0.89680  0.45800  Biso   1.000  C
  H91      1.0000 0.17270  0.84430  0.44690  Biso   1.000  H
  H92      1.0000 0.01510  0.88150  0.43740  Biso   1.000  H
  C90      1.0000 0.83450  0.13380  0.40780  Biso   1.000  C
