data_image0
_cell_length_a       16.861
_cell_length_b       15.805
_cell_length_c       13.9131
_cell_angle_alpha    90
_cell_angle_beta     90
_cell_angle_gamma    90

_symmetry_space_group_name_H-M    "P 1"
_symmetry_int_tables_number       1

loop_
  _symmetry_equiv_pos_as_xyz
  'x, y, z'

loop_
  _atom_site_label
  _atom_site_occupancy
  _atom_site_fract_x
  _atom_site_fract_y
  _atom_site_fract_z
  _atom_site_thermal_displace_type
  _atom_site_B_iso_or_equiv
  _atom_site_type_symbol
  Ag1      1.0000 0.15763  0.23487  0.33176  Biso   1.000  Ag
  Ag2      1.0000 0.40196  0.72294  0.26762  Biso   1.000  Ag
  N1       1.0000 0.29910  0.66680  0.17440  Biso   1.000  N
  N2       1.0000 0.34060  0.81470  0.37670  Biso   1.000  N
  N3       1.0000 0.23660  0.27840  0.45130  Biso   1.000  N
  N4       1.0000 0.27440  0.14000  0.24480  Biso   1.000  N
  C1       1.0000 0.31590  0.29430  0.40690  Biso   1.000  C
  H1       1.0000 0.33700  0.24070  0.38040  Biso   1.000  H
  H2       1.0000 0.35320  0.31460  0.45670  Biso   1.000  H
  C2       1.0000 0.36120  0.01820  0.46500  Biso   1.000  C
  H3       1.0000 0.41470  0.99950  0.46560  Biso   1.000  H
  C3       1.0000 0.20460  0.85440  0.14670  Biso   1.000  C
  H4       1.0000 0.15680  0.82300  0.14020  Biso   1.000  H
  C4       1.0000 0.33520  0.51780  0.21280  Biso   1.000  C
  H5       1.0000 0.38280  0.53460  0.24980  Biso   1.000  H
  H6       1.0000 0.34600  0.46230  0.18250  Biso   1.000  H
  C5       1.0000 0.34460  0.94470  0.16530  Biso   1.000  C
  H7       1.0000 0.39250  0.97600  0.17140  Biso   1.000  H
  C6       1.0000 0.34710  0.86270  0.13470  Biso   1.000  C
  H8       1.0000 0.39670  0.83730  0.12030  Biso   1.000  H
  C7       1.0000 0.34100  0.09920  0.49560  Biso   1.000  C
  H9       1.0000 0.38160  0.13620  0.51730  Biso   1.000  H
  C8       1.0000 0.24450  0.59790  0.32090  Biso   1.000  C
  H10      1.0000 0.28980  0.61850  0.35960  Biso   1.000  H
  H11      1.0000 0.19760  0.59440  0.36350  Biso   1.000  H
  C9       1.0000 0.20190  0.93870  0.17860  Biso   1.000  C
  H12      1.0000 0.15260  0.96460  0.19360  Biso   1.000  H
  C10      1.0000 0.19970  0.42780  0.41720  Biso   1.000  C
  H13      1.0000 0.18140  0.48100  0.44760  Biso   1.000  H
  H14      1.0000 0.15870  0.40970  0.37060  Biso   1.000  H
  C11      1.0000 0.26340  0.12690  0.49520  Biso   1.000  C
  C12      1.0000 0.31010  0.35980  0.32690  Biso   1.000  C
  H15      1.0000 0.27530  0.33790  0.27530  Biso   1.000  H
  H16      1.0000 0.36340  0.36920  0.29910  Biso   1.000  H
  C13      1.0000 0.27680  0.44450  0.36400  Biso   1.000  C
  H17      1.0000 0.31570  0.46900  0.41050  Biso   1.000  H
  C14      1.0000 0.20850  0.36030  0.49410  Biso   1.000  C
  H18      1.0000 0.24690  0.37960  0.54320  Biso   1.000  H
  H19      1.0000 0.15680  0.35130  0.52620  Biso   1.000  H
  C15      1.0000 0.26360  0.50990  0.28130  Biso   1.000  C
  H20      1.0000 0.21700  0.49060  0.24260  Biso   1.000  H
  C16      1.0000 0.32070  0.87970  0.40100  Biso   1.000  C
  C17      1.0000 0.22160  0.99110  0.43240  Biso   1.000  C
  H21      1.0000 0.18080  0.95410  0.41090  Biso   1.000  H
  C18      1.0000 0.20300  0.07210  0.46320  Biso   1.000  C
  H22      1.0000 0.14950  0.09080  0.46280  Biso   1.000  H
  C19      1.0000 0.29910  0.96440  0.43300  Biso   1.000  C
  C20      1.0000 0.22770  0.66060  0.23900  Biso   1.000  C
  H23      1.0000 0.18130  0.64110  0.20140  Biso   1.000  H
  H24      1.0000 0.21530  0.71690  0.26610  Biso   1.000  H
  C21      1.0000 0.24320  0.21590  0.53050  Biso   1.000  C
  H25      1.0000 0.19230  0.21400  0.56600  Biso   1.000  H
  H26      1.0000 0.28480  0.23490  0.57590  Biso   1.000  H
  C22      1.0000 0.28160  0.72460  0.09360  Biso   1.000  C
  H27      1.0000 0.23020  0.70840  0.06450  Biso   1.000  H
  H28      1.0000 0.32310  0.71810  0.04390  Biso   1.000  H
  C23      1.0000 0.31860  0.58340  0.13510  Biso   1.000  C
  H29      1.0000 0.36580  0.58860  0.09320  Biso   1.000  H
  H30      1.0000 0.27380  0.56360  0.09490  Biso   1.000  H
  C24      1.0000 0.27780  0.81600  0.12420  Biso   1.000  C
  C25      1.0000 0.27170  0.98330  0.18810  Biso   1.000  C
  C26      1.0000 0.27280  0.06870  0.21770  Biso   1.000  C
  Ag3      1.0000 0.84237  0.76513  0.83176  Biso   1.000  Ag
  Ag4      1.0000 0.59804  0.27706  0.76762  Biso   1.000  Ag
  N5       1.0000 0.70090  0.33320  0.67440  Biso   1.000  N
  N6       1.0000 0.65940  0.18530  0.87670  Biso   1.000  N
  N7       1.0000 0.76340  0.72160  0.95130  Biso   1.000  N
  N8       1.0000 0.72560  0.86000  0.74480  Biso   1.000  N
  C27      1.0000 0.68410  0.70570  0.90690  Biso   1.000  C
  H31      1.0000 0.66300  0.75930  0.88040  Biso   1.000  H
  H32      1.0000 0.64680  0.68540  0.95670  Biso   1.000  H
  C28      1.0000 0.63880  0.98180  0.96500  Biso   1.000  C
  H33      1.0000 0.58530  0.00050  0.96560  Biso   1.000  H
  C29      1.0000 0.79540  0.14560  0.64670  Biso   1.000  C
  H34      1.0000 0.84320  0.17700  0.64020  Biso   1.000  H
  C30      1.0000 0.66480  0.48220  0.71280  Biso   1.000  C
  H35      1.0000 0.61720  0.46540  0.74980  Biso   1.000  H
  H36      1.0000 0.65400  0.53770  0.68250  Biso   1.000  H
  C31      1.0000 0.65540  0.05530  0.66530  Biso   1.000  C
  H37      1.0000 0.60750  0.02400  0.67140  Biso   1.000  H
  C32      1.0000 0.65290  0.13730  0.63470  Biso   1.000  C
  H38      1.0000 0.60330  0.16270  0.62030  Biso   1.000  H
  C33      1.0000 0.65900  0.90080  0.99560  Biso   1.000  C
  H39      1.0000 0.61840  0.86380  0.01730  Biso   1.000  H
  C34      1.0000 0.75550  0.40210  0.82090  Biso   1.000  C
  H40      1.0000 0.71020  0.38150  0.85960  Biso   1.000  H
  H41      1.0000 0.80240  0.40560  0.86350  Biso   1.000  H
  C35      1.0000 0.79810  0.06130  0.67860  Biso   1.000  C
  H42      1.0000 0.84740  0.03540  0.69360  Biso   1.000  H
  C36      1.0000 0.80030  0.57220  0.91720  Biso   1.000  C
  H43      1.0000 0.81860  0.51900  0.94760  Biso   1.000  H
  H44      1.0000 0.84130  0.59030  0.87060  Biso   1.000  H
  C37      1.0000 0.73660  0.87310  0.99520  Biso   1.000  C
  C38      1.0000 0.68990  0.64020  0.82690  Biso   1.000  C
  H45      1.0000 0.72470  0.66210  0.77530  Biso   1.000  H
  H46      1.0000 0.63660  0.63080  0.79910  Biso   1.000  H
  C39      1.0000 0.72320  0.55550  0.86400  Biso   1.000  C
  H47      1.0000 0.68430  0.53100  0.91050  Biso   1.000  H
  C40      1.0000 0.79150  0.63970  0.99410  Biso   1.000  C
  H48      1.0000 0.75310  0.62040  0.04320  Biso   1.000  H
  H49      1.0000 0.84320  0.64870  0.02620  Biso   1.000  H
  C41      1.0000 0.73640  0.49010  0.78130  Biso   1.000  C
  H50      1.0000 0.78300  0.50940  0.74260  Biso   1.000  H
  C42      1.0000 0.67930  0.12030  0.90100  Biso   1.000  C
  C43      1.0000 0.77840  0.00890  0.93240  Biso   1.000  C
  H51      1.0000 0.81920  0.04590  0.91090  Biso   1.000  H
  C44      1.0000 0.79700  0.92790  0.96320  Biso   1.000  C
  H52      1.0000 0.85050  0.90920  0.96280  Biso   1.000  H
  C45      1.0000 0.70090  0.03560  0.93300  Biso   1.000  C
  C46      1.0000 0.77230  0.33940  0.73900  Biso   1.000  C
  H53      1.0000 0.81870  0.35890  0.70140  Biso   1.000  H
  H54      1.0000 0.78470  0.28310  0.76610  Biso   1.000  H
  C47      1.0000 0.75680  0.78410  0.03050  Biso   1.000  C
  H55      1.0000 0.80770  0.78600  0.06600  Biso   1.000  H
  H56      1.0000 0.71520  0.76510  0.07590  Biso   1.000  H
  C48      1.0000 0.71840  0.27540  0.59360  Biso   1.000  C
  H57      1.0000 0.76980  0.29160  0.56450  Biso   1.000  H
  H58      1.0000 0.67690  0.28190  0.54390  Biso   1.000  H
  C49      1.0000 0.68140  0.41660  0.63510  Biso   1.000  C
  H59      1.0000 0.63420  0.41140  0.59320  Biso   1.000  H
  H60      1.0000 0.72620  0.43640  0.59490  Biso   1.000  H
  C50      1.0000 0.72220  0.18400  0.62420  Biso   1.000  C
  C51      1.0000 0.72830  0.01670  0.68810  Biso   1.000  C
  C52      1.0000 0.72720  0.93130  0.71770  Biso   1.000  C
  Ag5      1.0000 0.65763  0.76513  0.33176  Biso   1.000  Ag
  Ag6      1.0000 0.90196  0.27706  0.26762  Biso   1.000  Ag
  N9       1.0000 0.79910  0.33320  0.17440  Biso   1.000  N
  N10      1.0000 0.84060  0.18530  0.37670  Biso   1.000  N
  N11      1.0000 0.73660  0.72160  0.45130  Biso   1.000  N
  N12      1.0000 0.77440  0.86000  0.24480  Biso   1.000  N
  C53      1.0000 0.81590  0.70570  0.40690  Biso   1.000  C
  H61      1.0000 0.83700  0.75930  0.38040  Biso   1.000  H
  H62      1.0000 0.85320  0.68540  0.45670  Biso   1.000  H
  C54      1.0000 0.86120  0.98180  0.46500  Biso   1.000  C
  H63      1.0000 0.91470  0.00050  0.46560  Biso   1.000  H
  C55      1.0000 0.70460  0.14560  0.14670  Biso   1.000  C
  H64      1.0000 0.65680  0.17700  0.14020  Biso   1.000  H
  C56      1.0000 0.83520  0.48220  0.21280  Biso   1.000  C
  H65      1.0000 0.88280  0.46540  0.24980  Biso   1.000  H
  H66      1.0000 0.84600  0.53770  0.18250  Biso   1.000  H
  C57      1.0000 0.84460  0.05530  0.16530  Biso   1.000  C
  H67      1.0000 0.89250  0.02400  0.17140  Biso   1.000  H
  C58      1.0000 0.84710  0.13730  0.13470  Biso   1.000  C
  H68      1.0000 0.89670  0.16270  0.12030  Biso   1.000  H
  C59      1.0000 0.84100  0.90080  0.49560  Biso   1.000  C
  H69      1.0000 0.88160  0.86380  0.51730  Biso   1.000  H
  C60      1.0000 0.74450  0.40210  0.32090  Biso   1.000  C
  H70      1.0000 0.78980  0.38150  0.35960  Biso   1.000  H
  H71      1.0000 0.69760  0.40560  0.36350  Biso   1.000  H
  C61      1.0000 0.70190  0.06130  0.17860  Biso   1.000  C
  H72      1.0000 0.65260  0.03540  0.19360  Biso   1.000  H
  C62      1.0000 0.69970  0.57220  0.41720  Biso   1.000  C
  H73      1.0000 0.68140  0.51900  0.44760  Biso   1.000  H
  H74      1.0000 0.65870  0.59030  0.37060  Biso   1.000  H
  C63      1.0000 0.76340  0.87310  0.49520  Biso   1.000  C
  C64      1.0000 0.81010  0.64020  0.32690  Biso   1.000  C
  H75      1.0000 0.77530  0.66210  0.27530  Biso   1.000  H
  H76      1.0000 0.86340  0.63080  0.29910  Biso   1.000  H
  C65      1.0000 0.77680  0.55550  0.36400  Biso   1.000  C
  H77      1.0000 0.81570  0.53100  0.41050  Biso   1.000  H
  C66      1.0000 0.70850  0.63970  0.49410  Biso   1.000  C
  H78      1.0000 0.74690  0.62040  0.54320  Biso   1.000  H
  H79      1.0000 0.65680  0.64870  0.52620  Biso   1.000  H
  C67      1.0000 0.76360  0.49010  0.28130  Biso   1.000  C
  H80      1.0000 0.71700  0.50940  0.24260  Biso   1.000  H
  C68      1.0000 0.82070  0.12030  0.40100  Biso   1.000  C
  C69      1.0000 0.72160  0.00890  0.43240  Biso   1.000  C
  H81      1.0000 0.68080  0.04590  0.41090  Biso   1.000  H
  C70      1.0000 0.70300  0.92790  0.46320  Biso   1.000  C
  H82      1.0000 0.64950  0.90920  0.46280  Biso   1.000  H
  C71      1.0000 0.79910  0.03560  0.43300  Biso   1.000  C
  C72      1.0000 0.72770  0.33940  0.23900  Biso   1.000  C
  H83      1.0000 0.68130  0.35890  0.20140  Biso   1.000  H
  H84      1.0000 0.71530  0.28310  0.26610  Biso   1.000  H
  C73      1.0000 0.74320  0.78410  0.53050  Biso   1.000  C
  H85      1.0000 0.69230  0.78600  0.56600  Biso   1.000  H
  H86      1.0000 0.78480  0.76510  0.57590  Biso   1.000  H
  C74      1.0000 0.78160  0.27540  0.09360  Biso   1.000  C
  H87      1.0000 0.73020  0.29160  0.06450  Biso   1.000  H
  H88      1.0000 0.82310  0.28190  0.04390  Biso   1.000  H
  C75      1.0000 0.81860  0.41660  0.13510  Biso   1.000  C
  H89      1.0000 0.86580  0.41140  0.09320  Biso   1.000  H
  H90      1.0000 0.77380  0.43640  0.09490  Biso   1.000  H
  C76      1.0000 0.77780  0.18400  0.12420  Biso   1.000  C
  C77      1.0000 0.77170  0.01670  0.18810  Biso   1.000  C
  C78      1.0000 0.77280  0.93130  0.21770  Biso   1.000  C
  Ag7      1.0000 0.34237  0.23487  0.83176  Biso   1.000  Ag
  Ag8      1.0000 0.09804  0.72294  0.76762  Biso   1.000  Ag
  N13      1.0000 0.20090  0.66680  0.67440  Biso   1.000  N
  N14      1.0000 0.15940  0.81470  0.87670  Biso   1.000  N
  N15      1.0000 0.26340  0.27840  0.95130  Biso   1.000  N
  N16      1.0000 0.22560  0.14000  0.74480  Biso   1.000  N
  C79      1.0000 0.18410  0.29430  0.90690  Biso   1.000  C
  H91      1.0000 0.16300  0.24070  0.88040  Biso   1.000  H
  H92      1.0000 0.14680  0.31460  0.95670  Biso   1.000  H
  C80      1.0000 0.13880  0.01820  0.96500  Biso   1.000  C
  H93      1.0000 0.08530  0.99950  0.96560  Biso   1.000  H
  C81      1.0000 0.29540  0.85440  0.64670  Biso   1.000  C
  H94      1.0000 0.34320  0.82300  0.64020  Biso   1.000  H
  C82      1.0000 0.16480  0.51780  0.71280  Biso   1.000  C
  H95      1.0000 0.11720  0.53460  0.74980  Biso   1.000  H
  H96      1.0000 0.15400  0.46230  0.68250  Biso   1.000  H
  C83      1.0000 0.15540  0.94470  0.66530  Biso   1.000  C
  H97      1.0000 0.10750  0.97600  0.67140  Biso   1.000  H
  C84      1.0000 0.15290  0.86270  0.63470  Biso   1.000  C
  H98      1.0000 0.10330  0.83730  0.62030  Biso   1.000  H
  C85      1.0000 0.15900  0.09920  0.99560  Biso   1.000  C
  H99      1.0000 0.11840  0.13620  0.01730  Biso   1.000  H
  C86      1.0000 0.25550  0.59790  0.82090  Biso   1.000  C
  H100     1.0000 0.21020  0.61850  0.85960  Biso   1.000  H
  H101     1.0000 0.30240  0.59440  0.86350  Biso   1.000  H
  C87      1.0000 0.29810  0.93870  0.67860  Biso   1.000  C
  H102     1.0000 0.34740  0.96460  0.69360  Biso   1.000  H
  C88      1.0000 0.30030  0.42780  0.91720  Biso   1.000  C
  H103     1.0000 0.31860  0.48100  0.94760  Biso   1.000  H
  H104     1.0000 0.34130  0.40970  0.87060  Biso   1.000  H
  C89      1.0000 0.23660  0.12690  0.99520  Biso   1.000  C
  C90      1.0000 0.18990  0.35980  0.82690  Biso   1.000  C
  H105     1.0000 0.22470  0.33790  0.77530  Biso   1.000  H
  H106     1.0000 0.13660  0.36920  0.79910  Biso   1.000  H
  C91      1.0000 0.22320  0.44450  0.86400  Biso   1.000  C
  H107     1.0000 0.18430  0.46900  0.91050  Biso   1.000  H
  C92      1.0000 0.29150  0.36030  0.99410  Biso   1.000  C
  H108     1.0000 0.25310  0.37960  0.04320  Biso   1.000  H
  H109     1.0000 0.34320  0.35130  0.02620  Biso   1.000  H
  C93      1.0000 0.23640  0.50990  0.78130  Biso   1.000  C
  H110     1.0000 0.28300  0.49060  0.74260  Biso   1.000  H
  C94      1.0000 0.17930  0.87970  0.90100  Biso   1.000  C
  C95      1.0000 0.27840  0.99110  0.93240  Biso   1.000  C
  H111     1.0000 0.31920  0.95410  0.91090  Biso   1.000  H
  C96      1.0000 0.29700  0.07210  0.96320  Biso   1.000  C
  H112     1.0000 0.35050  0.09080  0.96280  Biso   1.000  H
  C97      1.0000 0.20090  0.96440  0.93300  Biso   1.000  C
  C98      1.0000 0.27230  0.66060  0.73900  Biso   1.000  C
  H113     1.0000 0.31870  0.64110  0.70140  Biso   1.000  H
  H114     1.0000 0.28470  0.71690  0.76610  Biso   1.000  H
  C99      1.0000 0.25680  0.21590  0.03050  Biso   1.000  C
  H115     1.0000 0.30770  0.21400  0.06600  Biso   1.000  H
  H116     1.0000 0.21520  0.23490  0.07590  Biso   1.000  H
  C100     1.0000 0.21840  0.72460  0.59360  Biso   1.000  C
  H117     1.0000 0.26980  0.70840  0.56450  Biso   1.000  H
  H118     1.0000 0.17690  0.71810  0.54390  Biso   1.000  H
  C101     1.0000 0.18140  0.58340  0.63510  Biso   1.000  C
  H119     1.0000 0.13420  0.58860  0.59320  Biso   1.000  H
  H120     1.0000 0.22620  0.56360  0.59490  Biso   1.000  H
  C102     1.0000 0.22220  0.81600  0.62420  Biso   1.000  C
  C103     1.0000 0.22830  0.98330  0.68810  Biso   1.000  C
  C104     1.0000 0.22720  0.06870  0.71770  Biso   1.000  C
