data_image0
_cell_length_a       19.105
_cell_length_b       9.5729
_cell_length_c       16.083
_cell_angle_alpha    90
_cell_angle_beta     90
_cell_angle_gamma    90

_symmetry_space_group_name_H-M    "P 1"
_symmetry_int_tables_number       1

loop_
  _symmetry_equiv_pos_as_xyz
  'x, y, z'

loop_
  _atom_site_label
  _atom_site_occupancy
  _atom_site_fract_x
  _atom_site_fract_y
  _atom_site_fract_z
  _atom_site_thermal_displace_type
  _atom_site_B_iso_or_equiv
  _atom_site_type_symbol
  N1       1.0000 0.67336  0.24320  0.58824  Biso   1.000  N
  O1       1.0000 0.50715  0.10280  0.86849  Biso   1.000  O
  N2       1.0000 0.49289  0.32060  0.81970  Biso   1.000  N
  H1       1.0000 0.49180  0.40810  0.83150  Biso   1.000  H
  C1       1.0000 0.66765  0.34090  0.64730  Biso   1.000  C
  H2       1.0000 0.70450  0.40320  0.65470  Biso   1.000  H
  C2       1.0000 0.60927  0.35330  0.69780  Biso   1.000  C
  H3       1.0000 0.60730  0.42260  0.73830  Biso   1.000  H
  C3       1.0000 0.55350  0.26110  0.68740  Biso   1.000  C
  C4       1.0000 0.56087  0.15660  0.62777  Biso   1.000  C
  H4       1.0000 0.52570  0.09070  0.62040  Biso   1.000  H
  C5       1.0000 0.62040  0.15160  0.57996  Biso   1.000  C
  H5       1.0000 0.62430  0.08170  0.54010  Biso   1.000  H
  C6       1.0000 0.48544  0.27720  0.73430  Biso   1.000  C
  H6       1.0000 0.45660  0.34520  0.70550  Biso   1.000  H
  H7       1.0000 0.46080  0.18870  0.73310  Biso   1.000  H
  C7       1.0000 0.50150  0.22710  0.88120  Biso   1.000  C
  C8       1.0000 0.50370  0.28820  0.96710  Biso   1.000  C
  H8       1.0000 0.50520  0.38480  0.97290  Biso   1.000  H
  N3       1.0000 0.82664  0.25680  0.58824  Biso   1.000  N
  O2       1.0000 0.99285  0.39720  0.86849  Biso   1.000  O
  N4       1.0000 0.00711  0.17940  0.81970  Biso   1.000  N
  H9       1.0000 0.00820  0.09190  0.83150  Biso   1.000  H
  C9       1.0000 0.83235  0.15910  0.64730  Biso   1.000  C
  H10      1.0000 0.79550  0.09680  0.65470  Biso   1.000  H
  C10      1.0000 0.89073  0.14670  0.69780  Biso   1.000  C
  H11      1.0000 0.89270  0.07740  0.73830  Biso   1.000  H
  C11      1.0000 0.94650  0.23890  0.68740  Biso   1.000  C
  C12      1.0000 0.93913  0.34340  0.62777  Biso   1.000  C
  H12      1.0000 0.97430  0.40930  0.62040  Biso   1.000  H
  C13      1.0000 0.87960  0.34840  0.57996  Biso   1.000  C
  H13      1.0000 0.87570  0.41830  0.54010  Biso   1.000  H
  C14      1.0000 0.01456  0.22280  0.73430  Biso   1.000  C
  H14      1.0000 0.04340  0.15480  0.70550  Biso   1.000  H
  H15      1.0000 0.03920  0.31130  0.73310  Biso   1.000  H
  C15      1.0000 0.99850  0.27290  0.88120  Biso   1.000  C
  C16      1.0000 0.99630  0.21180  0.96710  Biso   1.000  C
  H16      1.0000 0.99480  0.11520  0.97290  Biso   1.000  H
  N5       1.0000 0.82664  0.24320  0.41176  Biso   1.000  N
  O3       1.0000 0.99285  0.10280  0.13151  Biso   1.000  O
  N6       1.0000 0.00711  0.32060  0.18030  Biso   1.000  N
  H17      1.0000 0.00820  0.40810  0.16850  Biso   1.000  H
  C17      1.0000 0.83235  0.34090  0.35270  Biso   1.000  C
  H18      1.0000 0.79550  0.40320  0.34530  Biso   1.000  H
  C18      1.0000 0.89073  0.35330  0.30220  Biso   1.000  C
  H19      1.0000 0.89270  0.42260  0.26170  Biso   1.000  H
  C19      1.0000 0.94650  0.26110  0.31260  Biso   1.000  C
  C20      1.0000 0.93913  0.15660  0.37223  Biso   1.000  C
  H20      1.0000 0.97430  0.09070  0.37960  Biso   1.000  H
  C21      1.0000 0.87960  0.15160  0.42004  Biso   1.000  C
  H21      1.0000 0.87570  0.08170  0.45990  Biso   1.000  H
  C22      1.0000 0.01456  0.27720  0.26570  Biso   1.000  C
  H22      1.0000 0.04340  0.34520  0.29450  Biso   1.000  H
  H23      1.0000 0.03920  0.18870  0.26690  Biso   1.000  H
  C23      1.0000 0.99850  0.22710  0.11880  Biso   1.000  C
  C24      1.0000 0.99630  0.28820  0.03290  Biso   1.000  C
  H24      1.0000 0.99480  0.38480  0.02710  Biso   1.000  H
  N7       1.0000 0.67336  0.25680  0.41176  Biso   1.000  N
  O4       1.0000 0.50715  0.39720  0.13151  Biso   1.000  O
  N8       1.0000 0.49289  0.17940  0.18030  Biso   1.000  N
  H25      1.0000 0.49180  0.09190  0.16850  Biso   1.000  H
  C25      1.0000 0.66765  0.15910  0.35270  Biso   1.000  C
  H26      1.0000 0.70450  0.09680  0.34530  Biso   1.000  H
  C26      1.0000 0.60927  0.14670  0.30220  Biso   1.000  C
  H27      1.0000 0.60730  0.07740  0.26170  Biso   1.000  H
  C27      1.0000 0.55350  0.23890  0.31260  Biso   1.000  C
  C28      1.0000 0.56087  0.34340  0.37223  Biso   1.000  C
  H28      1.0000 0.52570  0.40930  0.37960  Biso   1.000  H
  C29      1.0000 0.62040  0.34840  0.42004  Biso   1.000  C
  H29      1.0000 0.62430  0.41830  0.45990  Biso   1.000  H
  C30      1.0000 0.48544  0.22280  0.26570  Biso   1.000  C
  H30      1.0000 0.45660  0.15480  0.29450  Biso   1.000  H
  H31      1.0000 0.46080  0.31130  0.26690  Biso   1.000  H
  C31      1.0000 0.50150  0.27290  0.11880  Biso   1.000  C
  C32      1.0000 0.50370  0.21180  0.03290  Biso   1.000  C
  H32      1.0000 0.50520  0.11520  0.02710  Biso   1.000  H
  Cu1      1.0000 0.75000  0.25000  0.50000  Biso   1.000  Cu
  N9       1.0000 0.32664  0.75680  0.41176  Biso   1.000  N
  O5       1.0000 0.49285  0.89720  0.13151  Biso   1.000  O
  N10      1.0000 0.50711  0.67940  0.18030  Biso   1.000  N
  H33      1.0000 0.50820  0.59190  0.16850  Biso   1.000  H
  C33      1.0000 0.33235  0.65910  0.35270  Biso   1.000  C
  H34      1.0000 0.29550  0.59680  0.34530  Biso   1.000  H
  C34      1.0000 0.39073  0.64670  0.30220  Biso   1.000  C
  H35      1.0000 0.39270  0.57740  0.26170  Biso   1.000  H
  C35      1.0000 0.44650  0.73890  0.31260  Biso   1.000  C
  C36      1.0000 0.43913  0.84340  0.37223  Biso   1.000  C
  H36      1.0000 0.47430  0.90930  0.37960  Biso   1.000  H
  C37      1.0000 0.37960  0.84840  0.42004  Biso   1.000  C
  H37      1.0000 0.37570  0.91830  0.45990  Biso   1.000  H
  C38      1.0000 0.51456  0.72280  0.26570  Biso   1.000  C
  H38      1.0000 0.54340  0.65480  0.29450  Biso   1.000  H
  H39      1.0000 0.53920  0.81130  0.26690  Biso   1.000  H
  C39      1.0000 0.49850  0.77290  0.11880  Biso   1.000  C
  C40      1.0000 0.49630  0.71180  0.03290  Biso   1.000  C
  H40      1.0000 0.49480  0.61520  0.02710  Biso   1.000  H
  N11      1.0000 0.17336  0.74320  0.41176  Biso   1.000  N
  O6       1.0000 0.00715  0.60280  0.13151  Biso   1.000  O
  N12      1.0000 0.99289  0.82060  0.18030  Biso   1.000  N
  H41      1.0000 0.99180  0.90810  0.16850  Biso   1.000  H
  C41      1.0000 0.16765  0.84090  0.35270  Biso   1.000  C
  H42      1.0000 0.20450  0.90320  0.34530  Biso   1.000  H
  C42      1.0000 0.10927  0.85330  0.30220  Biso   1.000  C
  H43      1.0000 0.10730  0.92260  0.26170  Biso   1.000  H
  C43      1.0000 0.05350  0.76110  0.31260  Biso   1.000  C
  C44      1.0000 0.06087  0.65660  0.37223  Biso   1.000  C
  H44      1.0000 0.02570  0.59070  0.37960  Biso   1.000  H
  C45      1.0000 0.12040  0.65160  0.42004  Biso   1.000  C
  H45      1.0000 0.12430  0.58170  0.45990  Biso   1.000  H
  C46      1.0000 0.98544  0.77720  0.26570  Biso   1.000  C
  H46      1.0000 0.95660  0.84520  0.29450  Biso   1.000  H
  H47      1.0000 0.96080  0.68870  0.26690  Biso   1.000  H
  C47      1.0000 0.00150  0.72710  0.11880  Biso   1.000  C
  C48      1.0000 0.00370  0.78820  0.03290  Biso   1.000  C
  H48      1.0000 0.00520  0.88480  0.02710  Biso   1.000  H
  N13      1.0000 0.17336  0.75680  0.58824  Biso   1.000  N
  O7       1.0000 0.00715  0.89720  0.86849  Biso   1.000  O
  N14      1.0000 0.99289  0.67940  0.81970  Biso   1.000  N
  H49      1.0000 0.99180  0.59190  0.83150  Biso   1.000  H
  C49      1.0000 0.16765  0.65910  0.64730  Biso   1.000  C
  H50      1.0000 0.20450  0.59680  0.65470  Biso   1.000  H
  C50      1.0000 0.10927  0.64670  0.69780  Biso   1.000  C
  H51      1.0000 0.10730  0.57740  0.73830  Biso   1.000  H
  C51      1.0000 0.05350  0.73890  0.68740  Biso   1.000  C
  C52      1.0000 0.06087  0.84340  0.62777  Biso   1.000  C
  H52      1.0000 0.02570  0.90930  0.62040  Biso   1.000  H
  C53      1.0000 0.12040  0.84840  0.57996  Biso   1.000  C
  H53      1.0000 0.12430  0.91830  0.54010  Biso   1.000  H
  C54      1.0000 0.98544  0.72280  0.73430  Biso   1.000  C
  H54      1.0000 0.95660  0.65480  0.70550  Biso   1.000  H
  H55      1.0000 0.96080  0.81130  0.73310  Biso   1.000  H
  C55      1.0000 0.00150  0.77290  0.88120  Biso   1.000  C
  C56      1.0000 0.00370  0.71180  0.96710  Biso   1.000  C
  H56      1.0000 0.00520  0.61520  0.97290  Biso   1.000  H
  N15      1.0000 0.32664  0.74320  0.58824  Biso   1.000  N
  O8       1.0000 0.49285  0.60280  0.86849  Biso   1.000  O
  N16      1.0000 0.50711  0.82060  0.81970  Biso   1.000  N
  H57      1.0000 0.50820  0.90810  0.83150  Biso   1.000  H
  C57      1.0000 0.33235  0.84090  0.64730  Biso   1.000  C
  H58      1.0000 0.29550  0.90320  0.65470  Biso   1.000  H
  C58      1.0000 0.39073  0.85330  0.69780  Biso   1.000  C
  H59      1.0000 0.39270  0.92260  0.73830  Biso   1.000  H
  C59      1.0000 0.44650  0.76110  0.68740  Biso   1.000  C
  C60      1.0000 0.43913  0.65660  0.62777  Biso   1.000  C
  H60      1.0000 0.47430  0.59070  0.62040  Biso   1.000  H
  C61      1.0000 0.37960  0.65160  0.57996  Biso   1.000  C
  H61      1.0000 0.37570  0.58170  0.54010  Biso   1.000  H
  C62      1.0000 0.51456  0.77720  0.73430  Biso   1.000  C
  H62      1.0000 0.54340  0.84520  0.70550  Biso   1.000  H
  H63      1.0000 0.53920  0.68870  0.73310  Biso   1.000  H
  C63      1.0000 0.49850  0.72710  0.88120  Biso   1.000  C
  C64      1.0000 0.49630  0.78820  0.96710  Biso   1.000  C
  H64      1.0000 0.49480  0.88480  0.97290  Biso   1.000  H
  Cu2      1.0000 0.25000  0.75000  0.50000  Biso   1.000  Cu
