data_image0
_cell_length_a       15.5705
_cell_length_b       22.3823
_cell_length_c       27.2969
_cell_angle_alpha    90
_cell_angle_beta     101.102
_cell_angle_gamma    90

_symmetry_space_group_name_H-M    "P 1"
_symmetry_int_tables_number       1

loop_
  _symmetry_equiv_pos_as_xyz
  'x, y, z'

loop_
  _atom_site_label
  _atom_site_occupancy
  _atom_site_fract_x
  _atom_site_fract_y
  _atom_site_fract_z
  _atom_site_thermal_displace_type
  _atom_site_B_iso_or_equiv
  _atom_site_type_symbol
  Cu1      1.0000 0.00319  0.00057  0.38876  Biso   1.000  Cu
  Cu2      1.0000 0.83524  0.04574  0.42440  Biso   1.000  Cu
  Cu3      1.0000 0.83289  0.04743  0.53716  Biso   1.000  Cu
  O1       1.0000 0.07700  0.01900  0.45250  Biso   1.000  O
  H1       1.0000 0.10410  0.05180  0.45530  Biso   1.000  H
  O2       1.0000 0.92490  0.98100  0.43500  Biso   1.000  O
  H2       1.0000 0.89720  0.95110  0.43160  Biso   1.000  H
  O3       1.0000 0.90620  0.06960  0.48930  Biso   1.000  O
  H3       1.0000 0.91530  0.10410  0.49020  Biso   1.000  H
  N1       1.0000 0.66630  0.98030  0.29630  Biso   1.000  N
  C1       1.0000 0.69740  0.00900  0.33840  Biso   1.000  C
  H4       1.0000 0.65790  0.02650  0.35570  Biso   1.000  H
  N2       1.0000 0.78030  0.01370  0.35650  Biso   1.000  N
  C2       1.0000 0.82880  0.98390  0.32540  Biso   1.000  C
  C3       1.0000 0.80080  0.95120  0.28370  Biso   1.000  C
  C4       1.0000 0.71000  0.95140  0.26500  Biso   1.000  C
  N3       1.0000 0.66290  0.92700  0.22570  Biso   1.000  N
  H5       1.0000 0.60680  0.92970  0.22070  Biso   1.000  H
  H6       1.0000 0.68750  0.90810  0.20470  Biso   1.000  H
  C5       1.0000 0.76400  0.96180  0.28570  Biso   1.000  C
  C6       1.0000 0.78700  0.93120  0.25310  Biso   1.000  C
  N4       1.0000 0.72300  0.90700  0.21780  Biso   1.000  N
  H7       1.0000 0.73680  0.88480  0.19490  Biso   1.000  H
  H8       1.0000 0.66890  0.91460  0.21810  Biso   1.000  H
  N5       1.0000 0.85870  0.92610  0.25760  Biso   1.000  N
  C7       1.0000 0.92970  0.94140  0.29280  Biso   1.000  C
  H9       1.0000 0.98520  0.92730  0.29110  Biso   1.000  H
  N6       1.0000 0.91710  0.97770  0.33030  Biso   1.000  N
  N7       1.0000 0.66510  0.19450  0.53360  Biso   1.000  N
  C8       1.0000 0.71150  0.14850  0.54430  Biso   1.000  C
  H10      1.0000 0.72210  0.13720  0.57770  Biso   1.000  H
  N8       1.0000 0.74650  0.11450  0.51440  Biso   1.000  N
  C9       1.0000 0.73150  0.13400  0.46570  Biso   1.000  C
  C10      1.0000 0.67720  0.18650  0.45250  Biso   1.000  C
  C11      1.0000 0.64250  0.21700  0.48340  Biso   1.000  C
  N9       1.0000 0.59550  0.26680  0.46990  Biso   1.000  N
  H11      1.0000 0.58780  0.27930  0.43950  Biso   1.000  H
  H12      1.0000 0.57310  0.28620  0.49160  Biso   1.000  H
  N10      1.0000 0.67100  0.19870  0.39820  Biso   1.000  N
  C12      1.0000 0.71880  0.14920  0.38640  Biso   1.000  C
  H13      1.0000 0.72600  0.14180  0.35390  Biso   1.000  H
  N11      1.0000 0.75370  0.11320  0.42450  Biso   1.000  N
  N12      1.0000 0.14150  0.07710  0.28650  Biso   1.000  N
  C13      1.0000 0.08130  0.05470  0.31000  Biso   1.000  C
  H14      1.0000 0.02310  0.06290  0.29620  Biso   1.000  H
  N13      1.0000 0.09600  0.02200  0.35060  Biso   1.000  N
  C14      1.0000 0.18280  0.01410  0.36820  Biso   1.000  C
  C15      1.0000 0.25200  0.03750  0.34530  Biso   1.000  C
  C16      1.0000 0.22970  0.06720  0.30290  Biso   1.000  C
  N14      1.0000 0.28900  0.09450  0.28050  Biso   1.000  N
  H15      1.0000 0.34360  0.09300  0.29390  Biso   1.000  H
  H16      1.0000 0.27210  0.11340  0.25290  Biso   1.000  H
  N15      1.0000 0.33200  0.02180  0.37260  Biso   1.000  N
  C17      1.0000 0.31010  0.98900  0.40990  Biso   1.000  C
  H17      1.0000 0.35260  0.97120  0.43410  Biso   1.000  H
  N16      1.0000 0.22450  0.98300  0.41060  Biso   1.000  N
  Cu4      1.0000 0.99681  0.99943  0.61124  Biso   1.000  Cu
  Cu5      1.0000 0.16476  0.95426  0.57560  Biso   1.000  Cu
  Cu6      1.0000 0.16711  0.95257  0.46284  Biso   1.000  Cu
  O4       1.0000 0.92300  0.98100  0.54750  Biso   1.000  O
  H18      1.0000 0.89590  0.94820  0.54470  Biso   1.000  H
  O5       1.0000 0.07510  0.01900  0.56500  Biso   1.000  O
  H19      1.0000 0.10280  0.04890  0.56840  Biso   1.000  H
  O6       1.0000 0.09380  0.93040  0.51070  Biso   1.000  O
  H20      1.0000 0.08470  0.89590  0.50980  Biso   1.000  H
  N17      1.0000 0.33370  0.01970  0.70370  Biso   1.000  N
  C18      1.0000 0.30260  0.99100  0.66160  Biso   1.000  C
  H21      1.0000 0.34210  0.97350  0.64430  Biso   1.000  H
  N18      1.0000 0.21970  0.98630  0.64350  Biso   1.000  N
  C19      1.0000 0.17120  0.01610  0.67460  Biso   1.000  C
  C20      1.0000 0.19920  0.04880  0.71630  Biso   1.000  C
  C21      1.0000 0.29000  0.04860  0.73500  Biso   1.000  C
  N19      1.0000 0.33710  0.07300  0.77430  Biso   1.000  N
  H22      1.0000 0.39320  0.07030  0.77930  Biso   1.000  H
  H23      1.0000 0.31250  0.09190  0.79530  Biso   1.000  H
  C22      1.0000 0.23600  0.03820  0.71430  Biso   1.000  C
  C23      1.0000 0.21300  0.06880  0.74690  Biso   1.000  C
  N20      1.0000 0.27700  0.09300  0.78220  Biso   1.000  N
  H24      1.0000 0.26320  0.11520  0.80510  Biso   1.000  H
  H25      1.0000 0.33110  0.08540  0.78190  Biso   1.000  H
  N21      1.0000 0.14130  0.07390  0.74240  Biso   1.000  N
  C24      1.0000 0.07030  0.05860  0.70720  Biso   1.000  C
  H26      1.0000 0.01480  0.07270  0.70890  Biso   1.000  H
  N22      1.0000 0.08290  0.02230  0.66970  Biso   1.000  N
  N23      1.0000 0.33490  0.80550  0.46640  Biso   1.000  N
  C25      1.0000 0.28850  0.85150  0.45570  Biso   1.000  C
  H27      1.0000 0.27790  0.86280  0.42230  Biso   1.000  H
  N24      1.0000 0.25350  0.88550  0.48560  Biso   1.000  N
  C26      1.0000 0.26850  0.86600  0.53430  Biso   1.000  C
  C27      1.0000 0.32280  0.81350  0.54750  Biso   1.000  C
  C28      1.0000 0.35750  0.78300  0.51660  Biso   1.000  C
  N25      1.0000 0.40450  0.73320  0.53010  Biso   1.000  N
  H28      1.0000 0.41220  0.72070  0.56050  Biso   1.000  H
  H29      1.0000 0.42690  0.71380  0.50840  Biso   1.000  H
  N26      1.0000 0.32900  0.80130  0.60180  Biso   1.000  N
  C29      1.0000 0.28120  0.85080  0.61360  Biso   1.000  C
  H30      1.0000 0.27400  0.85820  0.64610  Biso   1.000  H
  N27      1.0000 0.24630  0.88680  0.57550  Biso   1.000  N
  N28      1.0000 0.85850  0.92290  0.71350  Biso   1.000  N
  C30      1.0000 0.91870  0.94530  0.69000  Biso   1.000  C
  H31      1.0000 0.97690  0.93710  0.70380  Biso   1.000  H
  N29      1.0000 0.90400  0.97800  0.64940  Biso   1.000  N
  C31      1.0000 0.81720  0.98590  0.63180  Biso   1.000  C
  C32      1.0000 0.74800  0.96250  0.65470  Biso   1.000  C
  C33      1.0000 0.77030  0.93280  0.69710  Biso   1.000  C
  N30      1.0000 0.71100  0.90550  0.71950  Biso   1.000  N
  H32      1.0000 0.65640  0.90700  0.70610  Biso   1.000  H
  H33      1.0000 0.72790  0.88660  0.74710  Biso   1.000  H
  N31      1.0000 0.66800  0.97820  0.62740  Biso   1.000  N
  C34      1.0000 0.68990  0.01100  0.59010  Biso   1.000  C
  H34      1.0000 0.64740  0.02880  0.56590  Biso   1.000  H
  N32      1.0000 0.77550  0.01700  0.58940  Biso   1.000  N
  Cu7      1.0000 0.00000  0.00000  0.50000  Biso   1.000  Cu
  Cu8      1.0000 0.50319  0.50057  0.38876  Biso   1.000  Cu
  Cu9      1.0000 0.33524  0.54574  0.42440  Biso   1.000  Cu
  Cu10     1.0000 0.33289  0.54743  0.53716  Biso   1.000  Cu
  O7       1.0000 0.57700  0.51900  0.45250  Biso   1.000  O
  H35      1.0000 0.60410  0.55180  0.45530  Biso   1.000  H
  O8       1.0000 0.42490  0.48100  0.43500  Biso   1.000  O
  H36      1.0000 0.39720  0.45110  0.43160  Biso   1.000  H
  O9       1.0000 0.40620  0.56960  0.48930  Biso   1.000  O
  H37      1.0000 0.41530  0.60410  0.49020  Biso   1.000  H
  N33      1.0000 0.16630  0.48030  0.29630  Biso   1.000  N
  C35      1.0000 0.19740  0.50900  0.33840  Biso   1.000  C
  H38      1.0000 0.15790  0.52650  0.35570  Biso   1.000  H
  N34      1.0000 0.28030  0.51370  0.35650  Biso   1.000  N
  C36      1.0000 0.32880  0.48390  0.32540  Biso   1.000  C
  C37      1.0000 0.30080  0.45120  0.28370  Biso   1.000  C
  C38      1.0000 0.21000  0.45140  0.26500  Biso   1.000  C
  N35      1.0000 0.16290  0.42700  0.22570  Biso   1.000  N
  H39      1.0000 0.10680  0.42970  0.22070  Biso   1.000  H
  H40      1.0000 0.18750  0.40810  0.20470  Biso   1.000  H
  C39      1.0000 0.26400  0.46180  0.28570  Biso   1.000  C
  C40      1.0000 0.28700  0.43120  0.25310  Biso   1.000  C
  N36      1.0000 0.22300  0.40700  0.21780  Biso   1.000  N
  H41      1.0000 0.23680  0.38480  0.19490  Biso   1.000  H
  H42      1.0000 0.16890  0.41460  0.21810  Biso   1.000  H
  N37      1.0000 0.35870  0.42610  0.25760  Biso   1.000  N
  C41      1.0000 0.42970  0.44140  0.29280  Biso   1.000  C
  H43      1.0000 0.48520  0.42730  0.29110  Biso   1.000  H
  N38      1.0000 0.41710  0.47770  0.33030  Biso   1.000  N
  N39      1.0000 0.16510  0.69450  0.53360  Biso   1.000  N
  C42      1.0000 0.21150  0.64850  0.54430  Biso   1.000  C
  H44      1.0000 0.22210  0.63720  0.57770  Biso   1.000  H
  N40      1.0000 0.24650  0.61450  0.51440  Biso   1.000  N
  C43      1.0000 0.23150  0.63400  0.46570  Biso   1.000  C
  C44      1.0000 0.17720  0.68650  0.45250  Biso   1.000  C
  C45      1.0000 0.14250  0.71700  0.48340  Biso   1.000  C
  N41      1.0000 0.09550  0.76680  0.46990  Biso   1.000  N
  H45      1.0000 0.08780  0.77930  0.43950  Biso   1.000  H
  H46      1.0000 0.07310  0.78620  0.49160  Biso   1.000  H
  N42      1.0000 0.17100  0.69870  0.39820  Biso   1.000  N
  C46      1.0000 0.21880  0.64920  0.38640  Biso   1.000  C
  H47      1.0000 0.22600  0.64180  0.35390  Biso   1.000  H
  N43      1.0000 0.25370  0.61320  0.42450  Biso   1.000  N
  N44      1.0000 0.64150  0.57710  0.28650  Biso   1.000  N
  C47      1.0000 0.58130  0.55470  0.31000  Biso   1.000  C
  H48      1.0000 0.52310  0.56290  0.29620  Biso   1.000  H
  N45      1.0000 0.59600  0.52200  0.35060  Biso   1.000  N
  C48      1.0000 0.68280  0.51410  0.36820  Biso   1.000  C
  C49      1.0000 0.75200  0.53750  0.34530  Biso   1.000  C
  C50      1.0000 0.72970  0.56720  0.30290  Biso   1.000  C
  N46      1.0000 0.78900  0.59450  0.28050  Biso   1.000  N
  H49      1.0000 0.84360  0.59300  0.29390  Biso   1.000  H
  H50      1.0000 0.77210  0.61340  0.25290  Biso   1.000  H
  N47      1.0000 0.83200  0.52180  0.37260  Biso   1.000  N
  C51      1.0000 0.81010  0.48900  0.40990  Biso   1.000  C
  H51      1.0000 0.85260  0.47120  0.43410  Biso   1.000  H
  N48      1.0000 0.72450  0.48300  0.41060  Biso   1.000  N
  Cu11     1.0000 0.49681  0.49943  0.61124  Biso   1.000  Cu
  Cu12     1.0000 0.66476  0.45426  0.57560  Biso   1.000  Cu
  Cu13     1.0000 0.66711  0.45257  0.46284  Biso   1.000  Cu
  O10      1.0000 0.42300  0.48100  0.54750  Biso   1.000  O
  H52      1.0000 0.39590  0.44820  0.54470  Biso   1.000  H
  O11      1.0000 0.57510  0.51900  0.56500  Biso   1.000  O
  H53      1.0000 0.60280  0.54890  0.56840  Biso   1.000  H
  O12      1.0000 0.59380  0.43040  0.51070  Biso   1.000  O
  H54      1.0000 0.58470  0.39590  0.50980  Biso   1.000  H
  N49      1.0000 0.83370  0.51970  0.70370  Biso   1.000  N
  C52      1.0000 0.80260  0.49100  0.66160  Biso   1.000  C
  H55      1.0000 0.84210  0.47350  0.64430  Biso   1.000  H
  N50      1.0000 0.71970  0.48630  0.64350  Biso   1.000  N
  C53      1.0000 0.67120  0.51610  0.67460  Biso   1.000  C
  C54      1.0000 0.69920  0.54880  0.71630  Biso   1.000  C
  C55      1.0000 0.79000  0.54860  0.73500  Biso   1.000  C
  N51      1.0000 0.83710  0.57300  0.77430  Biso   1.000  N
  H56      1.0000 0.89320  0.57030  0.77930  Biso   1.000  H
  H57      1.0000 0.81250  0.59190  0.79530  Biso   1.000  H
  C56      1.0000 0.73600  0.53820  0.71430  Biso   1.000  C
  C57      1.0000 0.71300  0.56880  0.74690  Biso   1.000  C
  N52      1.0000 0.77700  0.59300  0.78220  Biso   1.000  N
  H58      1.0000 0.76320  0.61520  0.80510  Biso   1.000  H
  H59      1.0000 0.83110  0.58540  0.78190  Biso   1.000  H
  N53      1.0000 0.64130  0.57390  0.74240  Biso   1.000  N
  C58      1.0000 0.57030  0.55860  0.70720  Biso   1.000  C
  H60      1.0000 0.51480  0.57270  0.70890  Biso   1.000  H
  N54      1.0000 0.58290  0.52230  0.66970  Biso   1.000  N
  N55      1.0000 0.83490  0.30550  0.46640  Biso   1.000  N
  C59      1.0000 0.78850  0.35150  0.45570  Biso   1.000  C
  H61      1.0000 0.77790  0.36280  0.42230  Biso   1.000  H
  N56      1.0000 0.75350  0.38550  0.48560  Biso   1.000  N
  C60      1.0000 0.76850  0.36600  0.53430  Biso   1.000  C
  C61      1.0000 0.82280  0.31350  0.54750  Biso   1.000  C
  C62      1.0000 0.85750  0.28300  0.51660  Biso   1.000  C
  N57      1.0000 0.90450  0.23320  0.53010  Biso   1.000  N
  H62      1.0000 0.91220  0.22070  0.56050  Biso   1.000  H
  H63      1.0000 0.92690  0.21380  0.50840  Biso   1.000  H
  N58      1.0000 0.82900  0.30130  0.60180  Biso   1.000  N
  C63      1.0000 0.78120  0.35080  0.61360  Biso   1.000  C
  H64      1.0000 0.77400  0.35820  0.64610  Biso   1.000  H
  N59      1.0000 0.74630  0.38680  0.57550  Biso   1.000  N
  N60      1.0000 0.35850  0.42290  0.71350  Biso   1.000  N
  C64      1.0000 0.41870  0.44530  0.69000  Biso   1.000  C
  H65      1.0000 0.47690  0.43710  0.70380  Biso   1.000  H
  N61      1.0000 0.40400  0.47800  0.64940  Biso   1.000  N
  C65      1.0000 0.31720  0.48590  0.63180  Biso   1.000  C
  C66      1.0000 0.24800  0.46250  0.65470  Biso   1.000  C
  C67      1.0000 0.27030  0.43280  0.69710  Biso   1.000  C
  N62      1.0000 0.21100  0.40550  0.71950  Biso   1.000  N
  H66      1.0000 0.15640  0.40700  0.70610  Biso   1.000  H
  H67      1.0000 0.22790  0.38660  0.74710  Biso   1.000  H
  N63      1.0000 0.16800  0.47820  0.62740  Biso   1.000  N
  C68      1.0000 0.18990  0.51100  0.59010  Biso   1.000  C
  H68      1.0000 0.14740  0.52880  0.56590  Biso   1.000  H
  N64      1.0000 0.27550  0.51700  0.58940  Biso   1.000  N
  Cu14     1.0000 0.50000  0.50000  0.50000  Biso   1.000  Cu
  Cu15     1.0000 0.99681  0.00057  0.11124  Biso   1.000  Cu
  Cu16     1.0000 0.16476  0.04574  0.07560  Biso   1.000  Cu
  Cu17     1.0000 0.16711  0.04743  0.96284  Biso   1.000  Cu
  O13      1.0000 0.92300  0.01900  0.04750  Biso   1.000  O
  H69      1.0000 0.89590  0.05180  0.04470  Biso   1.000  H
  O14      1.0000 0.07510  0.98100  0.06500  Biso   1.000  O
  H70      1.0000 0.10280  0.95110  0.06840  Biso   1.000  H
  O15      1.0000 0.09380  0.06960  0.01070  Biso   1.000  O
  H71      1.0000 0.08470  0.10410  0.00980  Biso   1.000  H
  N65      1.0000 0.33370  0.98030  0.20370  Biso   1.000  N
  C69      1.0000 0.30260  0.00900  0.16160  Biso   1.000  C
  H72      1.0000 0.34210  0.02650  0.14430  Biso   1.000  H
  N66      1.0000 0.21970  0.01370  0.14350  Biso   1.000  N
  C70      1.0000 0.17120  0.98390  0.17460  Biso   1.000  C
  C71      1.0000 0.19920  0.95120  0.21630  Biso   1.000  C
  C72      1.0000 0.29000  0.95140  0.23500  Biso   1.000  C
  N67      1.0000 0.33710  0.92700  0.27430  Biso   1.000  N
  H73      1.0000 0.39320  0.92970  0.27930  Biso   1.000  H
  H74      1.0000 0.31250  0.90810  0.29530  Biso   1.000  H
  C73      1.0000 0.23600  0.96180  0.21430  Biso   1.000  C
  C74      1.0000 0.21300  0.93120  0.24690  Biso   1.000  C
  N68      1.0000 0.27700  0.90700  0.28220  Biso   1.000  N
  H75      1.0000 0.26320  0.88480  0.30510  Biso   1.000  H
  H76      1.0000 0.33110  0.91460  0.28190  Biso   1.000  H
  N69      1.0000 0.14130  0.92610  0.24240  Biso   1.000  N
  C75      1.0000 0.07030  0.94140  0.20720  Biso   1.000  C
  H77      1.0000 0.01480  0.92730  0.20890  Biso   1.000  H
  N70      1.0000 0.08290  0.97770  0.16970  Biso   1.000  N
  N71      1.0000 0.33490  0.19450  0.96640  Biso   1.000  N
  C76      1.0000 0.28850  0.14850  0.95570  Biso   1.000  C
  H78      1.0000 0.27790  0.13720  0.92230  Biso   1.000  H
  N72      1.0000 0.25350  0.11450  0.98560  Biso   1.000  N
  C77      1.0000 0.26850  0.13400  0.03430  Biso   1.000  C
  C78      1.0000 0.32280  0.18650  0.04750  Biso   1.000  C
  C79      1.0000 0.35750  0.21700  0.01660  Biso   1.000  C
  N73      1.0000 0.40450  0.26680  0.03010  Biso   1.000  N
  H79      1.0000 0.41220  0.27930  0.06050  Biso   1.000  H
  H80      1.0000 0.42690  0.28620  0.00840  Biso   1.000  H
  N74      1.0000 0.32900  0.19870  0.10180  Biso   1.000  N
  C80      1.0000 0.28120  0.14920  0.11360  Biso   1.000  C
  H81      1.0000 0.27400  0.14180  0.14610  Biso   1.000  H
  N75      1.0000 0.24630  0.11320  0.07550  Biso   1.000  N
  N76      1.0000 0.85850  0.07710  0.21350  Biso   1.000  N
  C81      1.0000 0.91870  0.05470  0.19000  Biso   1.000  C
  H82      1.0000 0.97690  0.06290  0.20380  Biso   1.000  H
  N77      1.0000 0.90400  0.02200  0.14940  Biso   1.000  N
  C82      1.0000 0.81720  0.01410  0.13180  Biso   1.000  C
  C83      1.0000 0.74800  0.03750  0.15470  Biso   1.000  C
  C84      1.0000 0.77030  0.06720  0.19710  Biso   1.000  C
  N78      1.0000 0.71100  0.09450  0.21950  Biso   1.000  N
  H83      1.0000 0.65640  0.09300  0.20610  Biso   1.000  H
  H84      1.0000 0.72790  0.11340  0.24710  Biso   1.000  H
  N79      1.0000 0.66800  0.02180  0.12740  Biso   1.000  N
  C85      1.0000 0.68990  0.98900  0.09010  Biso   1.000  C
  H85      1.0000 0.64740  0.97120  0.06590  Biso   1.000  H
  N80      1.0000 0.77550  0.98300  0.08940  Biso   1.000  N
  Cu18     1.0000 0.00319  0.99943  0.88876  Biso   1.000  Cu
  Cu19     1.0000 0.83524  0.95426  0.92440  Biso   1.000  Cu
  Cu20     1.0000 0.83289  0.95257  0.03716  Biso   1.000  Cu
  O16      1.0000 0.07700  0.98100  0.95250  Biso   1.000  O
  H86      1.0000 0.10410  0.94820  0.95530  Biso   1.000  H
  O17      1.0000 0.92490  0.01900  0.93500  Biso   1.000  O
  H87      1.0000 0.89720  0.04890  0.93160  Biso   1.000  H
  O18      1.0000 0.90620  0.93040  0.98930  Biso   1.000  O
  H88      1.0000 0.91530  0.89590  0.99020  Biso   1.000  H
  N81      1.0000 0.66630  0.01970  0.79630  Biso   1.000  N
  C86      1.0000 0.69740  0.99100  0.83840  Biso   1.000  C
  H89      1.0000 0.65790  0.97350  0.85570  Biso   1.000  H
  N82      1.0000 0.78030  0.98630  0.85650  Biso   1.000  N
  C87      1.0000 0.82880  0.01610  0.82540  Biso   1.000  C
  C88      1.0000 0.80080  0.04880  0.78370  Biso   1.000  C
  C89      1.0000 0.71000  0.04860  0.76500  Biso   1.000  C
  N83      1.0000 0.66290  0.07300  0.72570  Biso   1.000  N
  H90      1.0000 0.60680  0.07030  0.72070  Biso   1.000  H
  H91      1.0000 0.68750  0.09190  0.70470  Biso   1.000  H
  C90      1.0000 0.76400  0.03820  0.78570  Biso   1.000  C
  C91      1.0000 0.78700  0.06880  0.75310  Biso   1.000  C
  N84      1.0000 0.72300  0.09300  0.71780  Biso   1.000  N
  H92      1.0000 0.73680  0.11520  0.69490  Biso   1.000  H
  H93      1.0000 0.66890  0.08540  0.71810  Biso   1.000  H
  N85      1.0000 0.85870  0.07390  0.75760  Biso   1.000  N
  C92      1.0000 0.92970  0.05860  0.79280  Biso   1.000  C
  H94      1.0000 0.98520  0.07270  0.79110  Biso   1.000  H
  N86      1.0000 0.91710  0.02230  0.83030  Biso   1.000  N
  N87      1.0000 0.66510  0.80550  0.03360  Biso   1.000  N
  C93      1.0000 0.71150  0.85150  0.04430  Biso   1.000  C
  H95      1.0000 0.72210  0.86280  0.07770  Biso   1.000  H
  N88      1.0000 0.74650  0.88550  0.01440  Biso   1.000  N
  C94      1.0000 0.73150  0.86600  0.96570  Biso   1.000  C
  C95      1.0000 0.67720  0.81350  0.95250  Biso   1.000  C
  C96      1.0000 0.64250  0.78300  0.98340  Biso   1.000  C
  N89      1.0000 0.59550  0.73320  0.96990  Biso   1.000  N
  H96      1.0000 0.58780  0.72070  0.93950  Biso   1.000  H
  H97      1.0000 0.57310  0.71380  0.99160  Biso   1.000  H
  N90      1.0000 0.67100  0.80130  0.89820  Biso   1.000  N
  C97      1.0000 0.71880  0.85080  0.88640  Biso   1.000  C
  H98      1.0000 0.72600  0.85820  0.85390  Biso   1.000  H
  N91      1.0000 0.75370  0.88680  0.92450  Biso   1.000  N
  N92      1.0000 0.14150  0.92290  0.78650  Biso   1.000  N
  C98      1.0000 0.08130  0.94530  0.81000  Biso   1.000  C
  H99      1.0000 0.02310  0.93710  0.79620  Biso   1.000  H
  N93      1.0000 0.09600  0.97800  0.85060  Biso   1.000  N
  C99      1.0000 0.18280  0.98590  0.86820  Biso   1.000  C
  C100     1.0000 0.25200  0.96250  0.84530  Biso   1.000  C
  C101     1.0000 0.22970  0.93280  0.80290  Biso   1.000  C
  N94      1.0000 0.28900  0.90550  0.78050  Biso   1.000  N
  H100     1.0000 0.34360  0.90700  0.79390  Biso   1.000  H
  H101     1.0000 0.27210  0.88660  0.75290  Biso   1.000  H
  N95      1.0000 0.33200  0.97820  0.87260  Biso   1.000  N
  C102     1.0000 0.31010  0.01100  0.90990  Biso   1.000  C
  H102     1.0000 0.35260  0.02880  0.93410  Biso   1.000  H
  N96      1.0000 0.22450  0.01700  0.91060  Biso   1.000  N
  Cu21     1.0000 0.00000  0.00000  0.00000  Biso   1.000  Cu
  Cu22     1.0000 0.49681  0.50057  0.11124  Biso   1.000  Cu
  Cu23     1.0000 0.66476  0.54574  0.07560  Biso   1.000  Cu
  Cu24     1.0000 0.66711  0.54743  0.96284  Biso   1.000  Cu
  O19      1.0000 0.42300  0.51900  0.04750  Biso   1.000  O
  H103     1.0000 0.39590  0.55180  0.04470  Biso   1.000  H
  O20      1.0000 0.57510  0.48100  0.06500  Biso   1.000  O
  H104     1.0000 0.60280  0.45110  0.06840  Biso   1.000  H
  O21      1.0000 0.59380  0.56960  0.01070  Biso   1.000  O
  H105     1.0000 0.58470  0.60410  0.00980  Biso   1.000  H
  N97      1.0000 0.83370  0.48030  0.20370  Biso   1.000  N
  C103     1.0000 0.80260  0.50900  0.16160  Biso   1.000  C
  H106     1.0000 0.84210  0.52650  0.14430  Biso   1.000  H
  N98      1.0000 0.71970  0.51370  0.14350  Biso   1.000  N
  C104     1.0000 0.67120  0.48390  0.17460  Biso   1.000  C
  C105     1.0000 0.69920  0.45120  0.21630  Biso   1.000  C
  C106     1.0000 0.79000  0.45140  0.23500  Biso   1.000  C
  N99      1.0000 0.83710  0.42700  0.27430  Biso   1.000  N
  H107     1.0000 0.89320  0.42970  0.27930  Biso   1.000  H
  H108     1.0000 0.81250  0.40810  0.29530  Biso   1.000  H
  C107     1.0000 0.73600  0.46180  0.21430  Biso   1.000  C
  C108     1.0000 0.71300  0.43120  0.24690  Biso   1.000  C
  N100     1.0000 0.77700  0.40700  0.28220  Biso   1.000  N
  H109     1.0000 0.76320  0.38480  0.30510  Biso   1.000  H
  H110     1.0000 0.83110  0.41460  0.28190  Biso   1.000  H
  N101     1.0000 0.64130  0.42610  0.24240  Biso   1.000  N
  C109     1.0000 0.57030  0.44140  0.20720  Biso   1.000  C
  H111     1.0000 0.51480  0.42730  0.20890  Biso   1.000  H
  N102     1.0000 0.58290  0.47770  0.16970  Biso   1.000  N
  N103     1.0000 0.83490  0.69450  0.96640  Biso   1.000  N
  C110     1.0000 0.78850  0.64850  0.95570  Biso   1.000  C
  H112     1.0000 0.77790  0.63720  0.92230  Biso   1.000  H
  N104     1.0000 0.75350  0.61450  0.98560  Biso   1.000  N
  C111     1.0000 0.76850  0.63400  0.03430  Biso   1.000  C
  C112     1.0000 0.82280  0.68650  0.04750  Biso   1.000  C
  C113     1.0000 0.85750  0.71700  0.01660  Biso   1.000  C
  N105     1.0000 0.90450  0.76680  0.03010  Biso   1.000  N
  H113     1.0000 0.91220  0.77930  0.06050  Biso   1.000  H
  H114     1.0000 0.92690  0.78620  0.00840  Biso   1.000  H
  N106     1.0000 0.82900  0.69870  0.10180  Biso   1.000  N
  C114     1.0000 0.78120  0.64920  0.11360  Biso   1.000  C
  H115     1.0000 0.77400  0.64180  0.14610  Biso   1.000  H
  N107     1.0000 0.74630  0.61320  0.07550  Biso   1.000  N
  N108     1.0000 0.35850  0.57710  0.21350  Biso   1.000  N
  C115     1.0000 0.41870  0.55470  0.19000  Biso   1.000  C
  H116     1.0000 0.47690  0.56290  0.20380  Biso   1.000  H
  N109     1.0000 0.40400  0.52200  0.14940  Biso   1.000  N
  C116     1.0000 0.31720  0.51410  0.13180  Biso   1.000  C
  C117     1.0000 0.24800  0.53750  0.15470  Biso   1.000  C
  C118     1.0000 0.27030  0.56720  0.19710  Biso   1.000  C
  N110     1.0000 0.21100  0.59450  0.21950  Biso   1.000  N
  H117     1.0000 0.15640  0.59300  0.20610  Biso   1.000  H
  H118     1.0000 0.22790  0.61340  0.24710  Biso   1.000  H
  N111     1.0000 0.16800  0.52180  0.12740  Biso   1.000  N
  C119     1.0000 0.18990  0.48900  0.09010  Biso   1.000  C
  H119     1.0000 0.14740  0.47120  0.06590  Biso   1.000  H
  N112     1.0000 0.27550  0.48300  0.08940  Biso   1.000  N
  Cu25     1.0000 0.50319  0.49943  0.88876  Biso   1.000  Cu
  Cu26     1.0000 0.33524  0.45426  0.92440  Biso   1.000  Cu
  Cu27     1.0000 0.33289  0.45257  0.03716  Biso   1.000  Cu
  O22      1.0000 0.57700  0.48100  0.95250  Biso   1.000  O
  H120     1.0000 0.60410  0.44820  0.95530  Biso   1.000  H
  O23      1.0000 0.42490  0.51900  0.93500  Biso   1.000  O
  H121     1.0000 0.39720  0.54890  0.93160  Biso   1.000  H
  O24      1.0000 0.40620  0.43040  0.98930  Biso   1.000  O
  H122     1.0000 0.41530  0.39590  0.99020  Biso   1.000  H
  N113     1.0000 0.16630  0.51970  0.79630  Biso   1.000  N
  C120     1.0000 0.19740  0.49100  0.83840  Biso   1.000  C
  H123     1.0000 0.15790  0.47350  0.85570  Biso   1.000  H
  N114     1.0000 0.28030  0.48630  0.85650  Biso   1.000  N
  C121     1.0000 0.32880  0.51610  0.82540  Biso   1.000  C
  C122     1.0000 0.30080  0.54880  0.78370  Biso   1.000  C
  C123     1.0000 0.21000  0.54860  0.76500  Biso   1.000  C
  N115     1.0000 0.16290  0.57300  0.72570  Biso   1.000  N
  H124     1.0000 0.10680  0.57030  0.72070  Biso   1.000  H
  H125     1.0000 0.18750  0.59190  0.70470  Biso   1.000  H
  C124     1.0000 0.26400  0.53820  0.78570  Biso   1.000  C
  C125     1.0000 0.28700  0.56880  0.75310  Biso   1.000  C
  N116     1.0000 0.22300  0.59300  0.71780  Biso   1.000  N
  H126     1.0000 0.23680  0.61520  0.69490  Biso   1.000  H
  H127     1.0000 0.16890  0.58540  0.71810  Biso   1.000  H
  N117     1.0000 0.35870  0.57390  0.75760  Biso   1.000  N
  C126     1.0000 0.42970  0.55860  0.79280  Biso   1.000  C
  H128     1.0000 0.48520  0.57270  0.79110  Biso   1.000  H
  N118     1.0000 0.41710  0.52230  0.83030  Biso   1.000  N
  N119     1.0000 0.16510  0.30550  0.03360  Biso   1.000  N
  C127     1.0000 0.21150  0.35150  0.04430  Biso   1.000  C
  H129     1.0000 0.22210  0.36280  0.07770  Biso   1.000  H
  N120     1.0000 0.24650  0.38550  0.01440  Biso   1.000  N
  C128     1.0000 0.23150  0.36600  0.96570  Biso   1.000  C
  C129     1.0000 0.17720  0.31350  0.95250  Biso   1.000  C
  C130     1.0000 0.14250  0.28300  0.98340  Biso   1.000  C
  N121     1.0000 0.09550  0.23320  0.96990  Biso   1.000  N
  H130     1.0000 0.08780  0.22070  0.93950  Biso   1.000  H
  H131     1.0000 0.07310  0.21380  0.99160  Biso   1.000  H
  N122     1.0000 0.17100  0.30130  0.89820  Biso   1.000  N
  C131     1.0000 0.21880  0.35080  0.88640  Biso   1.000  C
  H132     1.0000 0.22600  0.35820  0.85390  Biso   1.000  H
  N123     1.0000 0.25370  0.38680  0.92450  Biso   1.000  N
  N124     1.0000 0.64150  0.42290  0.78650  Biso   1.000  N
  C132     1.0000 0.58130  0.44530  0.81000  Biso   1.000  C
  H133     1.0000 0.52310  0.43710  0.79620  Biso   1.000  H
  N125     1.0000 0.59600  0.47800  0.85060  Biso   1.000  N
  C133     1.0000 0.68280  0.48590  0.86820  Biso   1.000  C
  C134     1.0000 0.75200  0.46250  0.84530  Biso   1.000  C
  C135     1.0000 0.72970  0.43280  0.80290  Biso   1.000  C
  N126     1.0000 0.78900  0.40550  0.78050  Biso   1.000  N
  H134     1.0000 0.84360  0.40700  0.79390  Biso   1.000  H
  H135     1.0000 0.77210  0.38660  0.75290  Biso   1.000  H
  N127     1.0000 0.83200  0.47820  0.87260  Biso   1.000  N
  C136     1.0000 0.81010  0.51100  0.90990  Biso   1.000  C
  H136     1.0000 0.85260  0.52880  0.93410  Biso   1.000  H
  N128     1.0000 0.72450  0.51700  0.91060  Biso   1.000  N
  Cu28     1.0000 0.50000  0.50000  0.00000  Biso   1.000  Cu
