data_image0
_cell_length_a       46.1852
_cell_length_b       16.1722
_cell_length_c       21.9613
_cell_angle_alpha    90
_cell_angle_beta     98.088
_cell_angle_gamma    90

_symmetry_space_group_name_H-M    "P 1"
_symmetry_int_tables_number       1

loop_
  _symmetry_equiv_pos_as_xyz
  'x, y, z'

loop_
  _atom_site_label
  _atom_site_occupancy
  _atom_site_fract_x
  _atom_site_fract_y
  _atom_site_fract_z
  _atom_site_thermal_displace_type
  _atom_site_B_iso_or_equiv
  _atom_site_type_symbol
  W1       1.0000 0.29024  0.21723  0.85138  Biso   1.000  W
  W2       1.0000 0.32877  0.40125  0.08799  Biso   1.000  W
  W3       1.0000 0.32491  0.02748  0.08864  Biso   1.000  W
  W4       1.0000 0.40393  0.02144  0.05726  Biso   1.000  W
  W5       1.0000 0.36872  0.20645  0.81594  Biso   1.000  W
  W6       1.0000 0.41813  0.19778  0.13576  Biso   1.000  W
  W7       1.0000 0.38507  0.40132  0.90175  Biso   1.000  W
  W8       1.0000 0.33827  0.20286  0.16761  Biso   1.000  W
  W9       1.0000 0.40781  0.39752  0.05328  Biso   1.000  W
  W10      1.0000 0.30647  0.40989  0.93573  Biso   1.000  W
  W11      1.0000 0.37750  0.02517  0.89059  Biso   1.000  W
  W12      1.0000 0.29861  0.03563  0.92450  Biso   1.000  W
  W13      1.0000 0.45503  0.07761  0.94826  Biso   1.000  W
  W14      1.0000 0.46937  0.25804  0.02713  Biso   1.000  W
  W15      1.0000 0.44595  0.26206  0.87290  Biso   1.000  W
  Co1      1.0000 0.26511  0.15761  0.10600  Biso   1.000  Co
  Co2      1.0000 0.24299  0.16625  0.96325  Biso   1.000  Co
  P1       1.0000 0.31135  0.21680  0.01060  Biso   1.000  P
  P2       1.0000 0.39673  0.20690  0.97400  Biso   1.000  P
  O1       1.0000 0.45900  0.15220  0.88000  Biso   1.000  O
  O2       1.0000 0.38460  0.00150  0.97590  Biso   1.000  O
  O3       1.0000 0.31180  0.17230  0.94890  Biso   1.000  O
  O4       1.0000 0.47360  0.29330  0.94300  Biso   1.000  O
  O5       1.0000 0.30700  0.32100  0.87730  Biso   1.000  O
  O6       1.0000 0.38850  0.29860  0.97940  Biso   1.000  O
  O7       1.0000 0.32320  0.30610  0.00920  Biso   1.000  O
  O8       1.0000 0.45230  0.20690  0.09010  Biso   1.000  O
  O9       1.0000 0.44490  0.35050  0.03110  Biso   1.000  O
  O10      1.0000 0.38160  0.18800  0.15460  Biso   1.000  O
  O11      1.0000 0.37010  0.41040  0.06200  Biso   1.000  O
  O12      1.0000 0.41080  0.30760  0.11030  Biso   1.000  O
  O13      1.0000 0.48020  0.14920  0.00190  Biso   1.000  O
  O14      1.0000 0.43920  0.04230  0.01830  Biso   1.000  O
  O15      1.0000 0.26580  0.06360  0.95490  Biso   1.000  O
  O16      1.0000 0.32170  0.01220  0.00270  Biso   1.000  O
  O17      1.0000 0.37440  0.08550  0.81590  Biso   1.000  O
  O18      1.0000 0.37030  0.31500  0.84820  Biso   1.000  O
  O19      1.0000 0.28770  0.05250  0.09260  Biso   1.000  O
  O20      1.0000 0.32970  0.16730  0.06230  Biso   1.000  O
  O21      1.0000 0.40430  0.45270  0.97720  Biso   1.000  O
  O22      1.0000 0.37830  0.16560  0.91960  Biso   1.000  O
  O23      1.0000 0.25910  0.23370  0.88850  Biso   1.000  O
  O24      1.0000 0.36910  0.03090  0.08340  Biso   1.000  O
  O25      1.0000 0.27100  0.37870  0.95320  Biso   1.000  O
  O26      1.0000 0.39650  0.16090  0.03660  Biso   1.000  O
  O27      1.0000 0.33860  0.08390  0.16540  Biso   1.000  O
  O28      1.0000 0.33080  0.19610  0.82880  Biso   1.000  O
  O29      1.0000 0.28780  0.09880  0.85150  Biso   1.000  O
  O30      1.0000 0.42310  0.35390  0.89170  Biso   1.000  O
  O31      1.0000 0.34490  0.31140  0.13560  Biso   1.000  O
  O32      1.0000 0.42410  0.07760  0.12720  Biso   1.000  O
  O33      1.0000 0.42120  0.04770  0.89950  Biso   1.000  O
  O34      1.0000 0.34940  0.41550  0.92640  Biso   1.000  O
  O35      1.0000 0.29890  0.21060  0.15770  Biso   1.000  O
  O36      1.0000 0.41250  0.21640  0.82960  Biso   1.000  O
  O37      1.0000 0.31770  0.46350  0.01120  Biso   1.000  O
  O38      1.0000 0.33880  0.03530  0.89480  Biso   1.000  O
  O39      1.0000 0.42980  0.20360  0.96090  Biso   1.000  O
  O40      1.0000 0.29170  0.37780  0.09310  Biso   1.000  O
  O41      1.0000 0.27900  0.22060  0.02270  Biso   1.000  O
  W16      1.0000 0.20976  0.28277  0.14862  Biso   1.000  W
  W17      1.0000 0.17123  0.09875  0.91201  Biso   1.000  W
  W18      1.0000 0.17509  0.47252  0.91136  Biso   1.000  W
  W19      1.0000 0.09607  0.47856  0.94274  Biso   1.000  W
  W20      1.0000 0.13128  0.29355  0.18406  Biso   1.000  W
  W21      1.0000 0.08187  0.30222  0.86424  Biso   1.000  W
  W22      1.0000 0.11493  0.09868  0.09825  Biso   1.000  W
  W23      1.0000 0.16173  0.29714  0.83239  Biso   1.000  W
  W24      1.0000 0.09219  0.10248  0.94672  Biso   1.000  W
  W25      1.0000 0.19353  0.09011  0.06427  Biso   1.000  W
  W26      1.0000 0.12250  0.47483  0.10941  Biso   1.000  W
  W27      1.0000 0.20139  0.46437  0.07550  Biso   1.000  W
  W28      1.0000 0.04497  0.42239  0.05174  Biso   1.000  W
  W29      1.0000 0.03063  0.24196  0.97287  Biso   1.000  W
  W30      1.0000 0.05405  0.23794  0.12710  Biso   1.000  W
  Co3      1.0000 0.23489  0.34239  0.89400  Biso   1.000  Co
  Co4      1.0000 0.25701  0.33375  0.03675  Biso   1.000  Co
  P3       1.0000 0.18865  0.28320  0.98940  Biso   1.000  P
  P4       1.0000 0.10327  0.29310  0.02600  Biso   1.000  P
  O42      1.0000 0.04100  0.34780  0.12000  Biso   1.000  O
  O43      1.0000 0.11540  0.49850  0.02410  Biso   1.000  O
  O44      1.0000 0.18820  0.32770  0.05110  Biso   1.000  O
  O45      1.0000 0.02640  0.20670  0.05700  Biso   1.000  O
  O46      1.0000 0.19300  0.17900  0.12270  Biso   1.000  O
  O47      1.0000 0.11150  0.20140  0.02060  Biso   1.000  O
  O48      1.0000 0.17680  0.19390  0.99080  Biso   1.000  O
  O49      1.0000 0.04770  0.29310  0.90990  Biso   1.000  O
  O50      1.0000 0.05510  0.14950  0.96890  Biso   1.000  O
  O51      1.0000 0.11840  0.31200  0.84540  Biso   1.000  O
  O52      1.0000 0.12990  0.08960  0.93800  Biso   1.000  O
  O53      1.0000 0.08920  0.19240  0.88970  Biso   1.000  O
  O54      1.0000 0.01980  0.35080  0.99810  Biso   1.000  O
  O55      1.0000 0.06080  0.45770  0.98170  Biso   1.000  O
  O56      1.0000 0.23420  0.43640  0.04510  Biso   1.000  O
  O57      1.0000 0.17830  0.48780  0.99730  Biso   1.000  O
  O58      1.0000 0.12560  0.41450  0.18410  Biso   1.000  O
  O59      1.0000 0.12970  0.18500  0.15180  Biso   1.000  O
  O60      1.0000 0.21230  0.44750  0.90740  Biso   1.000  O
  O61      1.0000 0.17030  0.33270  0.93770  Biso   1.000  O
  O62      1.0000 0.09570  0.04730  0.02280  Biso   1.000  O
  O63      1.0000 0.12170  0.33440  0.08040  Biso   1.000  O
  O64      1.0000 0.24090  0.26630  0.11150  Biso   1.000  O
  O65      1.0000 0.13090  0.46910  0.91660  Biso   1.000  O
  O66      1.0000 0.22900  0.12130  0.04680  Biso   1.000  O
  O67      1.0000 0.10350  0.33910  0.96340  Biso   1.000  O
  O68      1.0000 0.16140  0.41610  0.83460  Biso   1.000  O
  O69      1.0000 0.16920  0.30390  0.17120  Biso   1.000  O
  O70      1.0000 0.21220  0.40120  0.14850  Biso   1.000  O
  O71      1.0000 0.07690  0.14610  0.10830  Biso   1.000  O
  O72      1.0000 0.15510  0.18860  0.86440  Biso   1.000  O
  O73      1.0000 0.07590  0.42240  0.87280  Biso   1.000  O
  O74      1.0000 0.07880  0.45230  0.10050  Biso   1.000  O
  O75      1.0000 0.15060  0.08450  0.07360  Biso   1.000  O
  O76      1.0000 0.20110  0.28940  0.84230  Biso   1.000  O
  O77      1.0000 0.08750  0.28360  0.17040  Biso   1.000  O
  O78      1.0000 0.18230  0.03650  0.98880  Biso   1.000  O
  O79      1.0000 0.16120  0.46470  0.10520  Biso   1.000  O
  O80      1.0000 0.07020  0.29640  0.03910  Biso   1.000  O
  O81      1.0000 0.20830  0.12220  0.90690  Biso   1.000  O
  O82      1.0000 0.22100  0.27940  0.97730  Biso   1.000  O
  W31      1.0000 0.79024  0.71723  0.85138  Biso   1.000  W
  W32      1.0000 0.82877  0.90125  0.08799  Biso   1.000  W
  W33      1.0000 0.82491  0.52748  0.08864  Biso   1.000  W
  W34      1.0000 0.90393  0.52144  0.05726  Biso   1.000  W
  W35      1.0000 0.86872  0.70645  0.81594  Biso   1.000  W
  W36      1.0000 0.91813  0.69778  0.13576  Biso   1.000  W
  W37      1.0000 0.88507  0.90132  0.90175  Biso   1.000  W
  W38      1.0000 0.83827  0.70286  0.16761  Biso   1.000  W
  W39      1.0000 0.90781  0.89752  0.05328  Biso   1.000  W
  W40      1.0000 0.80647  0.90989  0.93573  Biso   1.000  W
  W41      1.0000 0.87750  0.52517  0.89059  Biso   1.000  W
  W42      1.0000 0.79861  0.53563  0.92450  Biso   1.000  W
  W43      1.0000 0.95503  0.57761  0.94826  Biso   1.000  W
  W44      1.0000 0.96937  0.75804  0.02713  Biso   1.000  W
  W45      1.0000 0.94595  0.76206  0.87290  Biso   1.000  W
  Co5      1.0000 0.76511  0.65761  0.10600  Biso   1.000  Co
  Co6      1.0000 0.74299  0.66625  0.96325  Biso   1.000  Co
  P5       1.0000 0.81135  0.71680  0.01060  Biso   1.000  P
  P6       1.0000 0.89673  0.70690  0.97400  Biso   1.000  P
  O83      1.0000 0.95900  0.65220  0.88000  Biso   1.000  O
  O84      1.0000 0.88460  0.50150  0.97590  Biso   1.000  O
  O85      1.0000 0.81180  0.67230  0.94890  Biso   1.000  O
  O86      1.0000 0.97360  0.79330  0.94300  Biso   1.000  O
  O87      1.0000 0.80700  0.82100  0.87730  Biso   1.000  O
  O88      1.0000 0.88850  0.79860  0.97940  Biso   1.000  O
  O89      1.0000 0.82320  0.80610  0.00920  Biso   1.000  O
  O90      1.0000 0.95230  0.70690  0.09010  Biso   1.000  O
  O91      1.0000 0.94490  0.85050  0.03110  Biso   1.000  O
  O92      1.0000 0.88160  0.68800  0.15460  Biso   1.000  O
  O93      1.0000 0.87010  0.91040  0.06200  Biso   1.000  O
  O94      1.0000 0.91080  0.80760  0.11030  Biso   1.000  O
  O95      1.0000 0.98020  0.64920  0.00190  Biso   1.000  O
  O96      1.0000 0.93920  0.54230  0.01830  Biso   1.000  O
  O97      1.0000 0.76580  0.56360  0.95490  Biso   1.000  O
  O98      1.0000 0.82170  0.51220  0.00270  Biso   1.000  O
  O99      1.0000 0.87440  0.58550  0.81590  Biso   1.000  O
  O100     1.0000 0.87030  0.81500  0.84820  Biso   1.000  O
  O101     1.0000 0.78770  0.55250  0.09260  Biso   1.000  O
  O102     1.0000 0.82970  0.66730  0.06230  Biso   1.000  O
  O103     1.0000 0.90430  0.95270  0.97720  Biso   1.000  O
  O104     1.0000 0.87830  0.66560  0.91960  Biso   1.000  O
  O105     1.0000 0.75910  0.73370  0.88850  Biso   1.000  O
  O106     1.0000 0.86910  0.53090  0.08340  Biso   1.000  O
  O107     1.0000 0.77100  0.87870  0.95320  Biso   1.000  O
  O108     1.0000 0.89650  0.66090  0.03660  Biso   1.000  O
  O109     1.0000 0.83860  0.58390  0.16540  Biso   1.000  O
  O110     1.0000 0.83080  0.69610  0.82880  Biso   1.000  O
  O111     1.0000 0.78780  0.59880  0.85150  Biso   1.000  O
  O112     1.0000 0.92310  0.85390  0.89170  Biso   1.000  O
  O113     1.0000 0.84490  0.81140  0.13560  Biso   1.000  O
  O114     1.0000 0.92410  0.57760  0.12720  Biso   1.000  O
  O115     1.0000 0.92120  0.54770  0.89950  Biso   1.000  O
  O116     1.0000 0.84940  0.91550  0.92640  Biso   1.000  O
  O117     1.0000 0.79890  0.71060  0.15770  Biso   1.000  O
  O118     1.0000 0.91250  0.71640  0.82960  Biso   1.000  O
  O119     1.0000 0.81770  0.96350  0.01120  Biso   1.000  O
  O120     1.0000 0.83880  0.53530  0.89480  Biso   1.000  O
  O121     1.0000 0.92980  0.70360  0.96090  Biso   1.000  O
  O122     1.0000 0.79170  0.87780  0.09310  Biso   1.000  O
  O123     1.0000 0.77900  0.72060  0.02270  Biso   1.000  O
  W46      1.0000 0.70976  0.78277  0.14862  Biso   1.000  W
  W47      1.0000 0.67123  0.59875  0.91201  Biso   1.000  W
  W48      1.0000 0.67509  0.97252  0.91136  Biso   1.000  W
  W49      1.0000 0.59607  0.97856  0.94274  Biso   1.000  W
  W50      1.0000 0.63128  0.79355  0.18406  Biso   1.000  W
  W51      1.0000 0.58187  0.80222  0.86424  Biso   1.000  W
  W52      1.0000 0.61493  0.59868  0.09825  Biso   1.000  W
  W53      1.0000 0.66173  0.79714  0.83239  Biso   1.000  W
  W54      1.0000 0.59219  0.60248  0.94672  Biso   1.000  W
  W55      1.0000 0.69353  0.59011  0.06427  Biso   1.000  W
  W56      1.0000 0.62250  0.97483  0.10941  Biso   1.000  W
  W57      1.0000 0.70139  0.96437  0.07550  Biso   1.000  W
  W58      1.0000 0.54497  0.92239  0.05174  Biso   1.000  W
  W59      1.0000 0.53063  0.74196  0.97287  Biso   1.000  W
  W60      1.0000 0.55405  0.73794  0.12710  Biso   1.000  W
  Co7      1.0000 0.73489  0.84239  0.89400  Biso   1.000  Co
  Co8      1.0000 0.75701  0.83375  0.03675  Biso   1.000  Co
  P7       1.0000 0.68865  0.78320  0.98940  Biso   1.000  P
  P8       1.0000 0.60327  0.79310  0.02600  Biso   1.000  P
  O124     1.0000 0.54100  0.84780  0.12000  Biso   1.000  O
  O125     1.0000 0.61540  0.99850  0.02410  Biso   1.000  O
  O126     1.0000 0.68820  0.82770  0.05110  Biso   1.000  O
  O127     1.0000 0.52640  0.70670  0.05700  Biso   1.000  O
  O128     1.0000 0.69300  0.67900  0.12270  Biso   1.000  O
  O129     1.0000 0.61150  0.70140  0.02060  Biso   1.000  O
  O130     1.0000 0.67680  0.69390  0.99080  Biso   1.000  O
  O131     1.0000 0.54770  0.79310  0.90990  Biso   1.000  O
  O132     1.0000 0.55510  0.64950  0.96890  Biso   1.000  O
  O133     1.0000 0.61840  0.81200  0.84540  Biso   1.000  O
  O134     1.0000 0.62990  0.58960  0.93800  Biso   1.000  O
  O135     1.0000 0.58920  0.69240  0.88970  Biso   1.000  O
  O136     1.0000 0.51980  0.85080  0.99810  Biso   1.000  O
  O137     1.0000 0.56080  0.95770  0.98170  Biso   1.000  O
  O138     1.0000 0.73420  0.93640  0.04510  Biso   1.000  O
  O139     1.0000 0.67830  0.98780  0.99730  Biso   1.000  O
  O140     1.0000 0.62560  0.91450  0.18410  Biso   1.000  O
  O141     1.0000 0.62970  0.68500  0.15180  Biso   1.000  O
  O142     1.0000 0.71230  0.94750  0.90740  Biso   1.000  O
  O143     1.0000 0.67030  0.83270  0.93770  Biso   1.000  O
  O144     1.0000 0.59570  0.54730  0.02280  Biso   1.000  O
  O145     1.0000 0.62170  0.83440  0.08040  Biso   1.000  O
  O146     1.0000 0.74090  0.76630  0.11150  Biso   1.000  O
  O147     1.0000 0.63090  0.96910  0.91660  Biso   1.000  O
  O148     1.0000 0.72900  0.62130  0.04680  Biso   1.000  O
  O149     1.0000 0.60350  0.83910  0.96340  Biso   1.000  O
  O150     1.0000 0.66140  0.91610  0.83460  Biso   1.000  O
  O151     1.0000 0.66920  0.80390  0.17120  Biso   1.000  O
  O152     1.0000 0.71220  0.90120  0.14850  Biso   1.000  O
  O153     1.0000 0.57690  0.64610  0.10830  Biso   1.000  O
  O154     1.0000 0.65510  0.68860  0.86440  Biso   1.000  O
  O155     1.0000 0.57590  0.92240  0.87280  Biso   1.000  O
  O156     1.0000 0.57880  0.95230  0.10050  Biso   1.000  O
  O157     1.0000 0.65060  0.58450  0.07360  Biso   1.000  O
  O158     1.0000 0.70110  0.78940  0.84230  Biso   1.000  O
  O159     1.0000 0.58750  0.78360  0.17040  Biso   1.000  O
  O160     1.0000 0.68230  0.53650  0.98880  Biso   1.000  O
  O161     1.0000 0.66120  0.96470  0.10520  Biso   1.000  O
  O162     1.0000 0.57020  0.79640  0.03910  Biso   1.000  O
  O163     1.0000 0.70830  0.62220  0.90690  Biso   1.000  O
  O164     1.0000 0.72100  0.77940  0.97730  Biso   1.000  O
  W61      1.0000 0.70976  0.21723  0.64862  Biso   1.000  W
  W62      1.0000 0.67123  0.40125  0.41201  Biso   1.000  W
  W63      1.0000 0.67509  0.02748  0.41136  Biso   1.000  W
  W64      1.0000 0.59607  0.02144  0.44274  Biso   1.000  W
  W65      1.0000 0.63128  0.20645  0.68406  Biso   1.000  W
  W66      1.0000 0.58187  0.19778  0.36424  Biso   1.000  W
  W67      1.0000 0.61493  0.40132  0.59825  Biso   1.000  W
  W68      1.0000 0.66173  0.20286  0.33239  Biso   1.000  W
  W69      1.0000 0.59219  0.39752  0.44672  Biso   1.000  W
  W70      1.0000 0.69353  0.40989  0.56427  Biso   1.000  W
  W71      1.0000 0.62250  0.02517  0.60941  Biso   1.000  W
  W72      1.0000 0.70139  0.03563  0.57550  Biso   1.000  W
  W73      1.0000 0.54497  0.07761  0.55174  Biso   1.000  W
  W74      1.0000 0.53063  0.25804  0.47287  Biso   1.000  W
  W75      1.0000 0.55405  0.26206  0.62710  Biso   1.000  W
  Co9      1.0000 0.73489  0.15761  0.39400  Biso   1.000  Co
  Co10     1.0000 0.75701  0.16625  0.53675  Biso   1.000  Co
  P9       1.0000 0.68865  0.21680  0.48940  Biso   1.000  P
  P10      1.0000 0.60327  0.20690  0.52600  Biso   1.000  P
  O165     1.0000 0.54100  0.15220  0.62000  Biso   1.000  O
  O166     1.0000 0.61540  0.00150  0.52410  Biso   1.000  O
  O167     1.0000 0.68820  0.17230  0.55110  Biso   1.000  O
  O168     1.0000 0.52640  0.29330  0.55700  Biso   1.000  O
  O169     1.0000 0.69300  0.32100  0.62270  Biso   1.000  O
  O170     1.0000 0.61150  0.29860  0.52060  Biso   1.000  O
  O171     1.0000 0.67680  0.30610  0.49080  Biso   1.000  O
  O172     1.0000 0.54770  0.20690  0.40990  Biso   1.000  O
  O173     1.0000 0.55510  0.35050  0.46890  Biso   1.000  O
  O174     1.0000 0.61840  0.18800  0.34540  Biso   1.000  O
  O175     1.0000 0.62990  0.41040  0.43800  Biso   1.000  O
  O176     1.0000 0.58920  0.30760  0.38970  Biso   1.000  O
  O177     1.0000 0.51980  0.14920  0.49810  Biso   1.000  O
  O178     1.0000 0.56080  0.04230  0.48170  Biso   1.000  O
  O179     1.0000 0.73420  0.06360  0.54510  Biso   1.000  O
  O180     1.0000 0.67830  0.01220  0.49730  Biso   1.000  O
  O181     1.0000 0.62560  0.08550  0.68410  Biso   1.000  O
  O182     1.0000 0.62970  0.31500  0.65180  Biso   1.000  O
  O183     1.0000 0.71230  0.05250  0.40740  Biso   1.000  O
  O184     1.0000 0.67030  0.16730  0.43770  Biso   1.000  O
  O185     1.0000 0.59570  0.45270  0.52280  Biso   1.000  O
  O186     1.0000 0.62170  0.16560  0.58040  Biso   1.000  O
  O187     1.0000 0.74090  0.23370  0.61150  Biso   1.000  O
  O188     1.0000 0.63090  0.03090  0.41660  Biso   1.000  O
  O189     1.0000 0.72900  0.37870  0.54680  Biso   1.000  O
  O190     1.0000 0.60350  0.16090  0.46340  Biso   1.000  O
  O191     1.0000 0.66140  0.08390  0.33460  Biso   1.000  O
  O192     1.0000 0.66920  0.19610  0.67120  Biso   1.000  O
  O193     1.0000 0.71220  0.09880  0.64850  Biso   1.000  O
  O194     1.0000 0.57690  0.35390  0.60830  Biso   1.000  O
  O195     1.0000 0.65510  0.31140  0.36440  Biso   1.000  O
  O196     1.0000 0.57590  0.07760  0.37280  Biso   1.000  O
  O197     1.0000 0.57880  0.04770  0.60050  Biso   1.000  O
  O198     1.0000 0.65060  0.41550  0.57360  Biso   1.000  O
  O199     1.0000 0.70110  0.21060  0.34230  Biso   1.000  O
  O200     1.0000 0.58750  0.21640  0.67040  Biso   1.000  O
  O201     1.0000 0.68230  0.46350  0.48880  Biso   1.000  O
  O202     1.0000 0.66120  0.03530  0.60520  Biso   1.000  O
  O203     1.0000 0.57020  0.20360  0.53910  Biso   1.000  O
  O204     1.0000 0.70830  0.37780  0.40690  Biso   1.000  O
  O205     1.0000 0.72100  0.22060  0.47730  Biso   1.000  O
  W76      1.0000 0.79024  0.28277  0.35138  Biso   1.000  W
  W77      1.0000 0.82877  0.09875  0.58799  Biso   1.000  W
  W78      1.0000 0.82491  0.47252  0.58864  Biso   1.000  W
  W79      1.0000 0.90393  0.47856  0.55726  Biso   1.000  W
  W80      1.0000 0.86872  0.29355  0.31594  Biso   1.000  W
  W81      1.0000 0.91813  0.30222  0.63576  Biso   1.000  W
  W82      1.0000 0.88507  0.09868  0.40175  Biso   1.000  W
  W83      1.0000 0.83827  0.29714  0.66761  Biso   1.000  W
  W84      1.0000 0.90781  0.10248  0.55328  Biso   1.000  W
  W85      1.0000 0.80647  0.09011  0.43573  Biso   1.000  W
  W86      1.0000 0.87750  0.47483  0.39059  Biso   1.000  W
  W87      1.0000 0.79861  0.46437  0.42450  Biso   1.000  W
  W88      1.0000 0.95503  0.42239  0.44826  Biso   1.000  W
  W89      1.0000 0.96937  0.24196  0.52713  Biso   1.000  W
  W90      1.0000 0.94595  0.23794  0.37290  Biso   1.000  W
  Co11     1.0000 0.76511  0.34239  0.60600  Biso   1.000  Co
  Co12     1.0000 0.74299  0.33375  0.46325  Biso   1.000  Co
  P11      1.0000 0.81135  0.28320  0.51060  Biso   1.000  P
  P12      1.0000 0.89673  0.29310  0.47400  Biso   1.000  P
  O206     1.0000 0.95900  0.34780  0.38000  Biso   1.000  O
  O207     1.0000 0.88460  0.49850  0.47590  Biso   1.000  O
  O208     1.0000 0.81180  0.32770  0.44890  Biso   1.000  O
  O209     1.0000 0.97360  0.20670  0.44300  Biso   1.000  O
  O210     1.0000 0.80700  0.17900  0.37730  Biso   1.000  O
  O211     1.0000 0.88850  0.20140  0.47940  Biso   1.000  O
  O212     1.0000 0.82320  0.19390  0.50920  Biso   1.000  O
  O213     1.0000 0.95230  0.29310  0.59010  Biso   1.000  O
  O214     1.0000 0.94490  0.14950  0.53110  Biso   1.000  O
  O215     1.0000 0.88160  0.31200  0.65460  Biso   1.000  O
  O216     1.0000 0.87010  0.08960  0.56200  Biso   1.000  O
  O217     1.0000 0.91080  0.19240  0.61030  Biso   1.000  O
  O218     1.0000 0.98020  0.35080  0.50190  Biso   1.000  O
  O219     1.0000 0.93920  0.45770  0.51830  Biso   1.000  O
  O220     1.0000 0.76580  0.43640  0.45490  Biso   1.000  O
  O221     1.0000 0.82170  0.48780  0.50270  Biso   1.000  O
  O222     1.0000 0.87440  0.41450  0.31590  Biso   1.000  O
  O223     1.0000 0.87030  0.18500  0.34820  Biso   1.000  O
  O224     1.0000 0.78770  0.44750  0.59260  Biso   1.000  O
  O225     1.0000 0.82970  0.33270  0.56230  Biso   1.000  O
  O226     1.0000 0.90430  0.04730  0.47720  Biso   1.000  O
  O227     1.0000 0.87830  0.33440  0.41960  Biso   1.000  O
  O228     1.0000 0.75910  0.26630  0.38850  Biso   1.000  O
  O229     1.0000 0.86910  0.46910  0.58340  Biso   1.000  O
  O230     1.0000 0.77100  0.12130  0.45320  Biso   1.000  O
  O231     1.0000 0.89650  0.33910  0.53660  Biso   1.000  O
  O232     1.0000 0.83860  0.41610  0.66540  Biso   1.000  O
  O233     1.0000 0.83080  0.30390  0.32880  Biso   1.000  O
  O234     1.0000 0.78780  0.40120  0.35150  Biso   1.000  O
  O235     1.0000 0.92310  0.14610  0.39170  Biso   1.000  O
  O236     1.0000 0.84490  0.18860  0.63560  Biso   1.000  O
  O237     1.0000 0.92410  0.42240  0.62720  Biso   1.000  O
  O238     1.0000 0.92120  0.45230  0.39950  Biso   1.000  O
  O239     1.0000 0.84940  0.08450  0.42640  Biso   1.000  O
  O240     1.0000 0.79890  0.28940  0.65770  Biso   1.000  O
  O241     1.0000 0.91250  0.28360  0.32960  Biso   1.000  O
  O242     1.0000 0.81770  0.03650  0.51120  Biso   1.000  O
  O243     1.0000 0.83880  0.46470  0.39480  Biso   1.000  O
  O244     1.0000 0.92980  0.29640  0.46090  Biso   1.000  O
  O245     1.0000 0.79170  0.12220  0.59310  Biso   1.000  O
  O246     1.0000 0.77900  0.27940  0.52270  Biso   1.000  O
  W91      1.0000 0.20976  0.71723  0.64862  Biso   1.000  W
  W92      1.0000 0.17123  0.90125  0.41201  Biso   1.000  W
  W93      1.0000 0.17509  0.52748  0.41136  Biso   1.000  W
  W94      1.0000 0.09607  0.52144  0.44274  Biso   1.000  W
  W95      1.0000 0.13128  0.70645  0.68406  Biso   1.000  W
  W96      1.0000 0.08187  0.69778  0.36424  Biso   1.000  W
  W97      1.0000 0.11493  0.90132  0.59825  Biso   1.000  W
  W98      1.0000 0.16173  0.70286  0.33239  Biso   1.000  W
  W99      1.0000 0.09219  0.89752  0.44672  Biso   1.000  W
  W100     1.0000 0.19353  0.90989  0.56427  Biso   1.000  W
  W101     1.0000 0.12250  0.52517  0.60941  Biso   1.000  W
  W102     1.0000 0.20139  0.53563  0.57550  Biso   1.000  W
  W103     1.0000 0.04497  0.57761  0.55174  Biso   1.000  W
  W104     1.0000 0.03063  0.75804  0.47287  Biso   1.000  W
  W105     1.0000 0.05405  0.76206  0.62710  Biso   1.000  W
  Co13     1.0000 0.23489  0.65761  0.39400  Biso   1.000  Co
  Co14     1.0000 0.25701  0.66625  0.53675  Biso   1.000  Co
  P13      1.0000 0.18865  0.71680  0.48940  Biso   1.000  P
  P14      1.0000 0.10327  0.70690  0.52600  Biso   1.000  P
  O247     1.0000 0.04100  0.65220  0.62000  Biso   1.000  O
  O248     1.0000 0.11540  0.50150  0.52410  Biso   1.000  O
  O249     1.0000 0.18820  0.67230  0.55110  Biso   1.000  O
  O250     1.0000 0.02640  0.79330  0.55700  Biso   1.000  O
  O251     1.0000 0.19300  0.82100  0.62270  Biso   1.000  O
  O252     1.0000 0.11150  0.79860  0.52060  Biso   1.000  O
  O253     1.0000 0.17680  0.80610  0.49080  Biso   1.000  O
  O254     1.0000 0.04770  0.70690  0.40990  Biso   1.000  O
  O255     1.0000 0.05510  0.85050  0.46890  Biso   1.000  O
  O256     1.0000 0.11840  0.68800  0.34540  Biso   1.000  O
  O257     1.0000 0.12990  0.91040  0.43800  Biso   1.000  O
  O258     1.0000 0.08920  0.80760  0.38970  Biso   1.000  O
  O259     1.0000 0.01980  0.64920  0.49810  Biso   1.000  O
  O260     1.0000 0.06080  0.54230  0.48170  Biso   1.000  O
  O261     1.0000 0.23420  0.56360  0.54510  Biso   1.000  O
  O262     1.0000 0.17830  0.51220  0.49730  Biso   1.000  O
  O263     1.0000 0.12560  0.58550  0.68410  Biso   1.000  O
  O264     1.0000 0.12970  0.81500  0.65180  Biso   1.000  O
  O265     1.0000 0.21230  0.55250  0.40740  Biso   1.000  O
  O266     1.0000 0.17030  0.66730  0.43770  Biso   1.000  O
  O267     1.0000 0.09570  0.95270  0.52280  Biso   1.000  O
  O268     1.0000 0.12170  0.66560  0.58040  Biso   1.000  O
  O269     1.0000 0.24090  0.73370  0.61150  Biso   1.000  O
  O270     1.0000 0.13090  0.53090  0.41660  Biso   1.000  O
  O271     1.0000 0.22900  0.87870  0.54680  Biso   1.000  O
  O272     1.0000 0.10350  0.66090  0.46340  Biso   1.000  O
  O273     1.0000 0.16140  0.58390  0.33460  Biso   1.000  O
  O274     1.0000 0.16920  0.69610  0.67120  Biso   1.000  O
  O275     1.0000 0.21220  0.59880  0.64850  Biso   1.000  O
  O276     1.0000 0.07690  0.85390  0.60830  Biso   1.000  O
  O277     1.0000 0.15510  0.81140  0.36440  Biso   1.000  O
  O278     1.0000 0.07590  0.57760  0.37280  Biso   1.000  O
  O279     1.0000 0.07880  0.54770  0.60050  Biso   1.000  O
  O280     1.0000 0.15060  0.91550  0.57360  Biso   1.000  O
  O281     1.0000 0.20110  0.71060  0.34230  Biso   1.000  O
  O282     1.0000 0.08750  0.71640  0.67040  Biso   1.000  O
  O283     1.0000 0.18230  0.96350  0.48880  Biso   1.000  O
  O284     1.0000 0.16120  0.53530  0.60520  Biso   1.000  O
  O285     1.0000 0.07020  0.70360  0.53910  Biso   1.000  O
  O286     1.0000 0.20830  0.87780  0.40690  Biso   1.000  O
  O287     1.0000 0.22100  0.72060  0.47730  Biso   1.000  O
  W106     1.0000 0.29024  0.78277  0.35138  Biso   1.000  W
  W107     1.0000 0.32877  0.59875  0.58799  Biso   1.000  W
  W108     1.0000 0.32491  0.97252  0.58864  Biso   1.000  W
  W109     1.0000 0.40393  0.97856  0.55726  Biso   1.000  W
  W110     1.0000 0.36872  0.79355  0.31594  Biso   1.000  W
  W111     1.0000 0.41813  0.80222  0.63576  Biso   1.000  W
  W112     1.0000 0.38507  0.59868  0.40175  Biso   1.000  W
  W113     1.0000 0.33827  0.79714  0.66761  Biso   1.000  W
  W114     1.0000 0.40781  0.60248  0.55328  Biso   1.000  W
  W115     1.0000 0.30647  0.59011  0.43573  Biso   1.000  W
  W116     1.0000 0.37750  0.97483  0.39059  Biso   1.000  W
  W117     1.0000 0.29861  0.96437  0.42450  Biso   1.000  W
  W118     1.0000 0.45503  0.92239  0.44826  Biso   1.000  W
  W119     1.0000 0.46937  0.74196  0.52713  Biso   1.000  W
  W120     1.0000 0.44595  0.73794  0.37290  Biso   1.000  W
  Co15     1.0000 0.26511  0.84239  0.60600  Biso   1.000  Co
  Co16     1.0000 0.24299  0.83375  0.46325  Biso   1.000  Co
  P15      1.0000 0.31135  0.78320  0.51060  Biso   1.000  P
  P16      1.0000 0.39673  0.79310  0.47400  Biso   1.000  P
  O288     1.0000 0.45900  0.84780  0.38000  Biso   1.000  O
  O289     1.0000 0.38460  0.99850  0.47590  Biso   1.000  O
  O290     1.0000 0.31180  0.82770  0.44890  Biso   1.000  O
  O291     1.0000 0.47360  0.70670  0.44300  Biso   1.000  O
  O292     1.0000 0.30700  0.67900  0.37730  Biso   1.000  O
  O293     1.0000 0.38850  0.70140  0.47940  Biso   1.000  O
  O294     1.0000 0.32320  0.69390  0.50920  Biso   1.000  O
  O295     1.0000 0.45230  0.79310  0.59010  Biso   1.000  O
  O296     1.0000 0.44490  0.64950  0.53110  Biso   1.000  O
  O297     1.0000 0.38160  0.81200  0.65460  Biso   1.000  O
  O298     1.0000 0.37010  0.58960  0.56200  Biso   1.000  O
  O299     1.0000 0.41080  0.69240  0.61030  Biso   1.000  O
  O300     1.0000 0.48020  0.85080  0.50190  Biso   1.000  O
  O301     1.0000 0.43920  0.95770  0.51830  Biso   1.000  O
  O302     1.0000 0.26580  0.93640  0.45490  Biso   1.000  O
  O303     1.0000 0.32170  0.98780  0.50270  Biso   1.000  O
  O304     1.0000 0.37440  0.91450  0.31590  Biso   1.000  O
  O305     1.0000 0.37030  0.68500  0.34820  Biso   1.000  O
  O306     1.0000 0.28770  0.94750  0.59260  Biso   1.000  O
  O307     1.0000 0.32970  0.83270  0.56230  Biso   1.000  O
  O308     1.0000 0.40430  0.54730  0.47720  Biso   1.000  O
  O309     1.0000 0.37830  0.83440  0.41960  Biso   1.000  O
  O310     1.0000 0.25910  0.76630  0.38850  Biso   1.000  O
  O311     1.0000 0.36910  0.96910  0.58340  Biso   1.000  O
  O312     1.0000 0.27100  0.62130  0.45320  Biso   1.000  O
  O313     1.0000 0.39650  0.83910  0.53660  Biso   1.000  O
  O314     1.0000 0.33860  0.91610  0.66540  Biso   1.000  O
  O315     1.0000 0.33080  0.80390  0.32880  Biso   1.000  O
  O316     1.0000 0.28780  0.90120  0.35150  Biso   1.000  O
  O317     1.0000 0.42310  0.64610  0.39170  Biso   1.000  O
  O318     1.0000 0.34490  0.68860  0.63560  Biso   1.000  O
  O319     1.0000 0.42410  0.92240  0.62720  Biso   1.000  O
  O320     1.0000 0.42120  0.95230  0.39950  Biso   1.000  O
  O321     1.0000 0.34940  0.58450  0.42640  Biso   1.000  O
  O322     1.0000 0.29890  0.78940  0.65770  Biso   1.000  O
  O323     1.0000 0.41250  0.78360  0.32960  Biso   1.000  O
  O324     1.0000 0.31770  0.53650  0.51120  Biso   1.000  O
  O325     1.0000 0.33880  0.96470  0.39480  Biso   1.000  O
  O326     1.0000 0.42980  0.79640  0.46090  Biso   1.000  O
  O327     1.0000 0.29170  0.62220  0.59310  Biso   1.000  O
  O328     1.0000 0.27900  0.77940  0.52270  Biso   1.000  O
