data_image0
_cell_length_a       18.6345
_cell_length_b       18.6345
_cell_length_c       21.563
_cell_angle_alpha    90
_cell_angle_beta     90
_cell_angle_gamma    120

_symmetry_space_group_name_H-M    "P 1"
_symmetry_int_tables_number       1

loop_
  _symmetry_equiv_pos_as_xyz
  'x, y, z'

loop_
  _atom_site_label
  _atom_site_occupancy
  _atom_site_fract_x
  _atom_site_fract_y
  _atom_site_fract_z
  _atom_site_thermal_displace_type
  _atom_site_B_iso_or_equiv
  _atom_site_type_symbol
  O1       1.0000 0.76290  0.64390  0.30380  Biso   1.000  O
  C1       1.0000 0.70390  0.60000  0.34200  Biso   1.000  C
  O2       1.0000 0.66460  0.52690  0.33970  Biso   1.000  O
  C2       1.0000 0.68730  0.64990  0.39020  Biso   1.000  C
  C3       1.0000 0.62490  0.60980  0.43399  Biso   1.000  C
  H1       1.0000 0.59370  0.55230  0.43450  Biso   1.000  H
  C4       1.0000 0.60910  0.65580  0.47702  Biso   1.000  C
  N1       1.0000 0.65570  0.74180  0.47630  Biso   1.000  N
  C5       1.0000 0.71820  0.78190  0.43250  Biso   1.000  C
  H2       1.0000 0.74940  0.83940  0.43210  Biso   1.000  H
  C6       1.0000 0.73390  0.73590  0.38950  Biso   1.000  C
  H3       1.0000 0.77570  0.76270  0.36020  Biso   1.000  H
  C7       1.0000 0.41910  0.54260  0.61610  Biso   1.000  C
  C8       1.0000 0.50120  0.52980  0.53740  Biso   1.000  C
  H4       1.0000 0.51340  0.49520  0.51430  Biso   1.000  H
  C9       1.0000 0.54360  0.61670  0.52450  Biso   1.000  C
  C10      1.0000 0.45660  0.62860  0.60140  Biso   1.000  C
  H5       1.0000 0.43990  0.66190  0.62150  Biso   1.000  H
  C11      1.0000 0.51930  0.66220  0.55590  Biso   1.000  C
  H6       1.0000 0.54470  0.71860  0.54750  Biso   1.000  H
  O3       1.0000 0.31470  0.43230  0.67200  Biso   1.000  O
  C12      1.0000 0.35360  0.50830  0.66380  Biso   1.000  C
  C13      1.0000 0.44420  0.49780  0.58210  Biso   1.000  C
  H7       1.0000 0.42030  0.44150  0.59050  Biso   1.000  H
  O4       1.0000 0.33670  0.55520  0.69260  Biso   1.000  O
  O5       1.0000 0.23710  0.35610  0.80380  Biso   1.000  O
  C14      1.0000 0.29610  0.40000  0.84200  Biso   1.000  C
  O6       1.0000 0.33540  0.47310  0.83970  Biso   1.000  O
  C15      1.0000 0.31270  0.35010  0.89020  Biso   1.000  C
  C16      1.0000 0.37510  0.39020  0.93399  Biso   1.000  C
  H8       1.0000 0.40630  0.44770  0.93450  Biso   1.000  H
  C17      1.0000 0.39090  0.34420  0.97702  Biso   1.000  C
  N2       1.0000 0.34430  0.25820  0.97630  Biso   1.000  N
  C18      1.0000 0.28180  0.21810  0.93250  Biso   1.000  C
  H9       1.0000 0.25060  0.16060  0.93210  Biso   1.000  H
  C19      1.0000 0.26610  0.26410  0.88950  Biso   1.000  C
  H10      1.0000 0.22430  0.23730  0.86020  Biso   1.000  H
  C20      1.0000 0.58090  0.45740  0.11610  Biso   1.000  C
  C21      1.0000 0.49880  0.47020  0.03740  Biso   1.000  C
  H11      1.0000 0.48660  0.50480  0.01430  Biso   1.000  H
  C22      1.0000 0.45640  0.38330  0.02450  Biso   1.000  C
  C23      1.0000 0.54340  0.37140  0.10140  Biso   1.000  C
  H12      1.0000 0.56010  0.33810  0.12150  Biso   1.000  H
  C24      1.0000 0.48070  0.33780  0.05590  Biso   1.000  C
  H13      1.0000 0.45530  0.28140  0.04750  Biso   1.000  H
  O7       1.0000 0.68530  0.56770  0.17200  Biso   1.000  O
  C25      1.0000 0.64640  0.49170  0.16380  Biso   1.000  C
  C26      1.0000 0.55580  0.50220  0.08210  Biso   1.000  C
  H14      1.0000 0.57970  0.55850  0.09050  Biso   1.000  H
  O8       1.0000 0.66330  0.44480  0.19260  Biso   1.000  O
  O9       1.0000 0.11900  0.35610  0.69620  Biso   1.000  O
  C27      1.0000 0.10390  0.40000  0.65800  Biso   1.000  C
  O10      1.0000 0.13770  0.47310  0.66030  Biso   1.000  O
  C28      1.0000 0.03740  0.35010  0.60980  Biso   1.000  C
  C29      1.0000 0.01510  0.39020  0.56601  Biso   1.000  C
  H15      1.0000 0.04140  0.44770  0.56550  Biso   1.000  H
  C30      1.0000 0.95330  0.34420  0.52298  Biso   1.000  C
  N3       1.0000 0.91390  0.25820  0.52370  Biso   1.000  N
  C31      1.0000 0.93630  0.21810  0.56750  Biso   1.000  C
  H16      1.0000 0.91000  0.16060  0.56790  Biso   1.000  H
  C32      1.0000 0.99800  0.26410  0.61050  Biso   1.000  C
  H17      1.0000 0.01300  0.23730  0.63980  Biso   1.000  H
  C33      1.0000 0.87650  0.45740  0.38390  Biso   1.000  C
  C34      1.0000 0.97140  0.47020  0.46260  Biso   1.000  C
  H18      1.0000 0.01820  0.50480  0.48570  Biso   1.000  H
  C35      1.0000 0.92690  0.38330  0.47550  Biso   1.000  C
  C36      1.0000 0.82800  0.37140  0.39860  Biso   1.000  C
  H19      1.0000 0.77800  0.33810  0.37850  Biso   1.000  H
  C37      1.0000 0.85710  0.33780  0.44410  Biso   1.000  C
  H20      1.0000 0.82610  0.28140  0.45250  Biso   1.000  H
  O11      1.0000 0.88240  0.56770  0.32800  Biso   1.000  O
  C38      1.0000 0.84530  0.49170  0.33620  Biso   1.000  C
  C39      1.0000 0.94640  0.50220  0.41790  Biso   1.000  C
  H21      1.0000 0.97880  0.55850  0.40950  Biso   1.000  H
  O12      1.0000 0.78150  0.44480  0.30740  Biso   1.000  O
  O13      1.0000 0.88100  0.64390  0.19620  Biso   1.000  O
  C40      1.0000 0.89610  0.60000  0.15800  Biso   1.000  C
  O14      1.0000 0.86230  0.52690  0.16030  Biso   1.000  O
  C41      1.0000 0.96260  0.64990  0.10980  Biso   1.000  C
  C42      1.0000 0.98490  0.60980  0.06601  Biso   1.000  C
  H22      1.0000 0.95860  0.55230  0.06550  Biso   1.000  H
  C43      1.0000 0.04670  0.65580  0.02298  Biso   1.000  C
  N4       1.0000 0.08610  0.74180  0.02370  Biso   1.000  N
  C44      1.0000 0.06370  0.78190  0.06750  Biso   1.000  C
  H23      1.0000 0.09000  0.83940  0.06790  Biso   1.000  H
  C45      1.0000 0.00200  0.73590  0.11050  Biso   1.000  C
  H24      1.0000 0.98700  0.76270  0.13980  Biso   1.000  H
  C46      1.0000 0.12350  0.54260  0.88390  Biso   1.000  C
  C47      1.0000 0.02860  0.52980  0.96260  Biso   1.000  C
  H25      1.0000 0.98180  0.49520  0.98570  Biso   1.000  H
  C48      1.0000 0.07310  0.61670  0.97550  Biso   1.000  C
  C49      1.0000 0.17200  0.62860  0.89860  Biso   1.000  C
  H26      1.0000 0.22200  0.66190  0.87850  Biso   1.000  H
  C50      1.0000 0.14290  0.66220  0.94410  Biso   1.000  C
  H27      1.0000 0.17390  0.71860  0.95250  Biso   1.000  H
  O15      1.0000 0.11760  0.43230  0.82800  Biso   1.000  O
  C51      1.0000 0.15470  0.50830  0.83620  Biso   1.000  C
  C52      1.0000 0.05360  0.49780  0.91790  Biso   1.000  C
  H28      1.0000 0.02120  0.44150  0.90950  Biso   1.000  H
  O16      1.0000 0.21850  0.55520  0.80740  Biso   1.000  O
  Cd1      1.0000 0.77262  0.54524  0.25000  Biso   1.000  Cd
  Cd2      1.0000 0.22738  0.45476  0.75000  Biso   1.000  Cd
  O17      1.0000 0.35610  0.11900  0.63713  Biso   1.000  O
  C53      1.0000 0.40000  0.10390  0.67533  Biso   1.000  C
  O18      1.0000 0.47310  0.13770  0.67303  Biso   1.000  O
  C54      1.0000 0.35010  0.03740  0.72353  Biso   1.000  C
  C55      1.0000 0.39020  0.01510  0.76732  Biso   1.000  C
  H29      1.0000 0.44770  0.04140  0.76783  Biso   1.000  H
  C56      1.0000 0.34420  0.95330  0.81035  Biso   1.000  C
  N5       1.0000 0.25820  0.91390  0.80963  Biso   1.000  N
  C57      1.0000 0.21810  0.93630  0.76583  Biso   1.000  C
  H30      1.0000 0.16060  0.91000  0.76543  Biso   1.000  H
  C58      1.0000 0.26410  0.99800  0.72283  Biso   1.000  C
  H31      1.0000 0.23730  0.01300  0.69353  Biso   1.000  H
  C59      1.0000 0.45740  0.87650  0.94943  Biso   1.000  C
  C60      1.0000 0.47020  0.97140  0.87073  Biso   1.000  C
  H32      1.0000 0.50480  0.01820  0.84763  Biso   1.000  H
  C61      1.0000 0.38330  0.92690  0.85783  Biso   1.000  C
  C62      1.0000 0.37140  0.82800  0.93473  Biso   1.000  C
  H33      1.0000 0.33810  0.77800  0.95483  Biso   1.000  H
  C63      1.0000 0.33780  0.85710  0.88923  Biso   1.000  C
  H34      1.0000 0.28140  0.82610  0.88083  Biso   1.000  H
  O19      1.0000 0.56770  0.88240  0.00533  Biso   1.000  O
  C64      1.0000 0.49170  0.84530  0.99713  Biso   1.000  C
  C65      1.0000 0.50220  0.94640  0.91543  Biso   1.000  C
  H35      1.0000 0.55850  0.97880  0.92383  Biso   1.000  H
  O20      1.0000 0.44480  0.78150  0.02593  Biso   1.000  O
  O21      1.0000 0.64390  0.88100  0.13713  Biso   1.000  O
  C66      1.0000 0.60000  0.89610  0.17533  Biso   1.000  C
  O22      1.0000 0.52690  0.86230  0.17303  Biso   1.000  O
  C67      1.0000 0.64990  0.96260  0.22353  Biso   1.000  C
  C68      1.0000 0.60980  0.98490  0.26732  Biso   1.000  C
  H36      1.0000 0.55230  0.95860  0.26783  Biso   1.000  H
  C69      1.0000 0.65580  0.04670  0.31035  Biso   1.000  C
  N6       1.0000 0.74180  0.08610  0.30963  Biso   1.000  N
  C70      1.0000 0.78190  0.06370  0.26583  Biso   1.000  C
  H37      1.0000 0.83940  0.09000  0.26543  Biso   1.000  H
  C71      1.0000 0.73590  0.00200  0.22283  Biso   1.000  C
  H38      1.0000 0.76270  0.98700  0.19353  Biso   1.000  H
  C72      1.0000 0.54260  0.12350  0.44943  Biso   1.000  C
  C73      1.0000 0.52980  0.02860  0.37073  Biso   1.000  C
  H39      1.0000 0.49520  0.98180  0.34763  Biso   1.000  H
  C74      1.0000 0.61670  0.07310  0.35783  Biso   1.000  C
  C75      1.0000 0.62860  0.17200  0.43473  Biso   1.000  C
  H40      1.0000 0.66190  0.22200  0.45483  Biso   1.000  H
  C76      1.0000 0.66220  0.14290  0.38923  Biso   1.000  C
  H41      1.0000 0.71860  0.17390  0.38083  Biso   1.000  H
  O23      1.0000 0.43230  0.11760  0.50533  Biso   1.000  O
  C77      1.0000 0.50830  0.15470  0.49713  Biso   1.000  C
  C78      1.0000 0.49780  0.05360  0.41543  Biso   1.000  C
  H42      1.0000 0.44150  0.02120  0.42383  Biso   1.000  H
  O24      1.0000 0.55520  0.21850  0.52593  Biso   1.000  O
  O25      1.0000 0.64390  0.76290  0.02953  Biso   1.000  O
  C79      1.0000 0.60000  0.70390  0.99133  Biso   1.000  C
  O26      1.0000 0.52690  0.66460  0.99363  Biso   1.000  O
  C80      1.0000 0.64990  0.68730  0.94313  Biso   1.000  C
  C81      1.0000 0.60980  0.62490  0.89934  Biso   1.000  C
  H43      1.0000 0.55230  0.59370  0.89883  Biso   1.000  H
  C82      1.0000 0.65580  0.60910  0.85631  Biso   1.000  C
  N7       1.0000 0.74180  0.65570  0.85703  Biso   1.000  N
  C83      1.0000 0.78190  0.71820  0.90083  Biso   1.000  C
  H44      1.0000 0.83940  0.74940  0.90123  Biso   1.000  H
  C84      1.0000 0.73590  0.73390  0.94383  Biso   1.000  C
  H45      1.0000 0.76270  0.77570  0.97313  Biso   1.000  H
  C85      1.0000 0.54260  0.41910  0.71723  Biso   1.000  C
  C86      1.0000 0.52980  0.50120  0.79593  Biso   1.000  C
  H46      1.0000 0.49520  0.51340  0.81903  Biso   1.000  H
  C87      1.0000 0.61670  0.54360  0.80883  Biso   1.000  C
  C88      1.0000 0.62860  0.45660  0.73193  Biso   1.000  C
  H47      1.0000 0.66190  0.43990  0.71183  Biso   1.000  H
  C89      1.0000 0.66220  0.51930  0.77743  Biso   1.000  C
  H48      1.0000 0.71860  0.54470  0.78583  Biso   1.000  H
  O27      1.0000 0.43230  0.31470  0.66133  Biso   1.000  O
  C90      1.0000 0.50830  0.35360  0.66953  Biso   1.000  C
  C91      1.0000 0.49780  0.44420  0.75123  Biso   1.000  C
  H49      1.0000 0.44150  0.42030  0.74283  Biso   1.000  H
  O28      1.0000 0.55520  0.33670  0.64073  Biso   1.000  O
  O29      1.0000 0.35610  0.23710  0.52953  Biso   1.000  O
  C92      1.0000 0.40000  0.29610  0.49133  Biso   1.000  C
  O30      1.0000 0.47310  0.33540  0.49363  Biso   1.000  O
  C93      1.0000 0.35010  0.31270  0.44313  Biso   1.000  C
  C94      1.0000 0.39020  0.37510  0.39934  Biso   1.000  C
  H50      1.0000 0.44770  0.40630  0.39883  Biso   1.000  H
  C95      1.0000 0.34420  0.39090  0.35631  Biso   1.000  C
  N8       1.0000 0.25820  0.34430  0.35703  Biso   1.000  N
  C96      1.0000 0.21810  0.28180  0.40083  Biso   1.000  C
  H51      1.0000 0.16060  0.25060  0.40123  Biso   1.000  H
  C97      1.0000 0.26410  0.26610  0.44383  Biso   1.000  C
  H52      1.0000 0.23730  0.22430  0.47313  Biso   1.000  H
  C98      1.0000 0.45740  0.58090  0.21723  Biso   1.000  C
  C99      1.0000 0.47020  0.49880  0.29593  Biso   1.000  C
  H53      1.0000 0.50480  0.48660  0.31903  Biso   1.000  H
  C100     1.0000 0.38330  0.45640  0.30883  Biso   1.000  C
  C101     1.0000 0.37140  0.54340  0.23193  Biso   1.000  C
  H54      1.0000 0.33810  0.56010  0.21183  Biso   1.000  H
  C102     1.0000 0.33780  0.48070  0.27743  Biso   1.000  C
  H55      1.0000 0.28140  0.45530  0.28583  Biso   1.000  H
  O31      1.0000 0.56770  0.68530  0.16133  Biso   1.000  O
  C103     1.0000 0.49170  0.64640  0.16953  Biso   1.000  C
  C104     1.0000 0.50220  0.55580  0.25123  Biso   1.000  C
  H56      1.0000 0.55850  0.57970  0.24283  Biso   1.000  H
  O32      1.0000 0.44480  0.66330  0.14073  Biso   1.000  O
  Cd3      1.0000 0.45476  0.22738  0.58333  Biso   1.000  Cd
  Cd4      1.0000 0.54524  0.77262  0.08333  Biso   1.000  Cd
  O33      1.0000 0.88100  0.23710  0.97047  Biso   1.000  O
  C105     1.0000 0.89610  0.29610  0.00867  Biso   1.000  C
  O34      1.0000 0.86230  0.33540  0.00637  Biso   1.000  O
  C106     1.0000 0.96260  0.31270  0.05687  Biso   1.000  C
  C107     1.0000 0.98490  0.37510  0.10066  Biso   1.000  C
  H57      1.0000 0.95860  0.40630  0.10117  Biso   1.000  H
  C108     1.0000 0.04670  0.39090  0.14369  Biso   1.000  C
  N9       1.0000 0.08610  0.34430  0.14297  Biso   1.000  N
  C109     1.0000 0.06370  0.28180  0.09917  Biso   1.000  C
  H58      1.0000 0.09000  0.25060  0.09877  Biso   1.000  H
  C110     1.0000 0.00200  0.26610  0.05617  Biso   1.000  C
  H59      1.0000 0.98700  0.22430  0.02687  Biso   1.000  H
  C111     1.0000 0.12350  0.58090  0.28277  Biso   1.000  C
  C112     1.0000 0.02860  0.49880  0.20407  Biso   1.000  C
  H60      1.0000 0.98180  0.48660  0.18097  Biso   1.000  H
  C113     1.0000 0.07310  0.45640  0.19117  Biso   1.000  C
  C114     1.0000 0.17200  0.54340  0.26807  Biso   1.000  C
  H61      1.0000 0.22200  0.56010  0.28817  Biso   1.000  H
  C115     1.0000 0.14290  0.48070  0.22257  Biso   1.000  C
  H62      1.0000 0.17390  0.45530  0.21417  Biso   1.000  H
  O35      1.0000 0.11760  0.68530  0.33867  Biso   1.000  O
  C116     1.0000 0.15470  0.64640  0.33047  Biso   1.000  C
  C117     1.0000 0.05360  0.55580  0.24877  Biso   1.000  C
  H63      1.0000 0.02120  0.57970  0.25717  Biso   1.000  H
  O36      1.0000 0.21850  0.66330  0.35927  Biso   1.000  O
  O37      1.0000 0.11900  0.76290  0.47047  Biso   1.000  O
  C118     1.0000 0.10390  0.70390  0.50867  Biso   1.000  C
  O38      1.0000 0.13770  0.66460  0.50637  Biso   1.000  O
  C119     1.0000 0.03740  0.68730  0.55687  Biso   1.000  C
  C120     1.0000 0.01510  0.62490  0.60066  Biso   1.000  C
  H64      1.0000 0.04140  0.59370  0.60117  Biso   1.000  H
  C121     1.0000 0.95330  0.60910  0.64369  Biso   1.000  C
  N10      1.0000 0.91390  0.65570  0.64297  Biso   1.000  N
  C122     1.0000 0.93630  0.71820  0.59917  Biso   1.000  C
  H65      1.0000 0.91000  0.74940  0.59877  Biso   1.000  H
  C123     1.0000 0.99800  0.73390  0.55617  Biso   1.000  C
  H66      1.0000 0.01300  0.77570  0.52687  Biso   1.000  H
  C124     1.0000 0.87650  0.41910  0.78277  Biso   1.000  C
  C125     1.0000 0.97140  0.50120  0.70407  Biso   1.000  C
  H67      1.0000 0.01820  0.51340  0.68097  Biso   1.000  H
  C126     1.0000 0.92690  0.54360  0.69117  Biso   1.000  C
  C127     1.0000 0.82800  0.45660  0.76807  Biso   1.000  C
  H68      1.0000 0.77800  0.43990  0.78817  Biso   1.000  H
  C128     1.0000 0.85710  0.51930  0.72257  Biso   1.000  C
  H69      1.0000 0.82610  0.54470  0.71417  Biso   1.000  H
  O39      1.0000 0.88240  0.31470  0.83867  Biso   1.000  O
  C129     1.0000 0.84530  0.35360  0.83047  Biso   1.000  C
  C130     1.0000 0.94640  0.44420  0.74877  Biso   1.000  C
  H70      1.0000 0.97880  0.42030  0.75717  Biso   1.000  H
  O40      1.0000 0.78150  0.33670  0.85927  Biso   1.000  O
  O41      1.0000 0.23710  0.88100  0.36287  Biso   1.000  O
  C131     1.0000 0.29610  0.89610  0.32467  Biso   1.000  C
  O42      1.0000 0.33540  0.86230  0.32697  Biso   1.000  O
  C132     1.0000 0.31270  0.96260  0.27647  Biso   1.000  C
  C133     1.0000 0.37510  0.98490  0.23268  Biso   1.000  C
  H71      1.0000 0.40630  0.95860  0.23217  Biso   1.000  H
  C134     1.0000 0.39090  0.04670  0.18965  Biso   1.000  C
  N11      1.0000 0.34430  0.08610  0.19037  Biso   1.000  N
  C135     1.0000 0.28180  0.06370  0.23417  Biso   1.000  C
  H72      1.0000 0.25060  0.09000  0.23457  Biso   1.000  H
  C136     1.0000 0.26610  0.00200  0.27717  Biso   1.000  C
  H73      1.0000 0.22430  0.98700  0.30647  Biso   1.000  H
  C137     1.0000 0.58090  0.12350  0.05057  Biso   1.000  C
  C138     1.0000 0.49880  0.02860  0.12927  Biso   1.000  C
  H74      1.0000 0.48660  0.98180  0.15237  Biso   1.000  H
  C139     1.0000 0.45640  0.07310  0.14217  Biso   1.000  C
  C140     1.0000 0.54340  0.17200  0.06527  Biso   1.000  C
  H75      1.0000 0.56010  0.22200  0.04517  Biso   1.000  H
  C141     1.0000 0.48070  0.14290  0.11077  Biso   1.000  C
  H76      1.0000 0.45530  0.17390  0.11917  Biso   1.000  H
  O43      1.0000 0.68530  0.11760  0.99467  Biso   1.000  O
  C142     1.0000 0.64640  0.15470  0.00287  Biso   1.000  C
  C143     1.0000 0.55580  0.05360  0.08457  Biso   1.000  C
  H77      1.0000 0.57970  0.02120  0.07617  Biso   1.000  H
  O44      1.0000 0.66330  0.21850  0.97407  Biso   1.000  O
  O45      1.0000 0.76290  0.11900  0.86287  Biso   1.000  O
  C144     1.0000 0.70390  0.10390  0.82467  Biso   1.000  C
  O46      1.0000 0.66460  0.13770  0.82697  Biso   1.000  O
  C145     1.0000 0.68730  0.03740  0.77647  Biso   1.000  C
  C146     1.0000 0.62490  0.01510  0.73268  Biso   1.000  C
  H78      1.0000 0.59370  0.04140  0.73217  Biso   1.000  H
  C147     1.0000 0.60910  0.95330  0.68965  Biso   1.000  C
  N12      1.0000 0.65570  0.91390  0.69037  Biso   1.000  N
  C148     1.0000 0.71820  0.93630  0.73417  Biso   1.000  C
  H79      1.0000 0.74940  0.91000  0.73457  Biso   1.000  H
  C149     1.0000 0.73390  0.99800  0.77717  Biso   1.000  C
  H80      1.0000 0.77570  0.01300  0.80647  Biso   1.000  H
  C150     1.0000 0.41910  0.87650  0.55057  Biso   1.000  C
  C151     1.0000 0.50120  0.97140  0.62927  Biso   1.000  C
  H81      1.0000 0.51340  0.01820  0.65237  Biso   1.000  H
  C152     1.0000 0.54360  0.92690  0.64217  Biso   1.000  C
  C153     1.0000 0.45660  0.82800  0.56527  Biso   1.000  C
  H82      1.0000 0.43990  0.77800  0.54517  Biso   1.000  H
  C154     1.0000 0.51930  0.85710  0.61077  Biso   1.000  C
  H83      1.0000 0.54470  0.82610  0.61917  Biso   1.000  H
  O47      1.0000 0.31470  0.88240  0.49467  Biso   1.000  O
  C155     1.0000 0.35360  0.84530  0.50287  Biso   1.000  C
  C156     1.0000 0.44420  0.94640  0.58457  Biso   1.000  C
  H84      1.0000 0.42030  0.97880  0.57617  Biso   1.000  H
  O48      1.0000 0.33670  0.78150  0.47407  Biso   1.000  O
  Cd5      1.0000 0.77262  0.22738  0.91667  Biso   1.000  Cd
  Cd6      1.0000 0.22738  0.77262  0.41667  Biso   1.000  Cd
