data_image0
_cell_length_a       11.5081
_cell_length_b       11.4273
_cell_length_c       13.2728
_cell_angle_alpha    90
_cell_angle_beta     91.889
_cell_angle_gamma    90

_symmetry_space_group_name_H-M    "P 1"
_symmetry_int_tables_number       1

loop_
  _symmetry_equiv_pos_as_xyz
  'x, y, z'

loop_
  _atom_site_label
  _atom_site_occupancy
  _atom_site_fract_x
  _atom_site_fract_y
  _atom_site_fract_z
  _atom_site_thermal_displace_type
  _atom_site_B_iso_or_equiv
  _atom_site_type_symbol
  U1       1.0000 0.51266  0.86579  0.77026  Biso   1.000  U
  O1       1.0000 0.37360  0.71740  0.70949  Biso   1.000  O
  O2       1.0000 0.49130  0.66620  0.83490  Biso   1.000  O
  O3       1.0000 0.84560  0.31960  0.59124  Biso   1.000  O
  O4       1.0000 0.83650  0.49340  0.65680  Biso   1.000  O
  O5       1.0000 0.51050  0.06540  0.70120  Biso   1.000  O
  O6       1.0000 0.39310  0.94210  0.62501  Biso   1.000  O
  C1       1.0000 0.42950  0.44090  0.69000  Biso   1.000  C
  C2       1.0000 0.53130  0.47850  0.64440  Biso   1.000  C
  H1       1.0000 0.56430  0.55230  0.66180  Biso   1.000  H
  C3       1.0000 0.58400  0.40750  0.57370  Biso   1.000  C
  C4       1.0000 0.53570  0.29930  0.54810  Biso   1.000  C
  H2       1.0000 0.57150  0.25140  0.49950  Biso   1.000  H
  C5       1.0000 0.43430  0.26090  0.59390  Biso   1.000  C
  C6       1.0000 0.38250  0.33230  0.66400  Biso   1.000  C
  H3       1.0000 0.31360  0.30660  0.69490  Biso   1.000  H
  C7       1.0000 0.36600  0.51610  0.76420  Biso   1.000  C
  H4       1.0000 0.28240  0.51790  0.74450  Biso   1.000  H
  H5       1.0000 0.37360  0.48010  0.83200  Biso   1.000  H
  C8       1.0000 0.41130  0.63970  0.76980  Biso   1.000  C
  C9       1.0000 0.69500  0.44810  0.52480  Biso   1.000  C
  H6       1.0000 0.70330  0.40810  0.45930  Biso   1.000  H
  H7       1.0000 0.69140  0.53350  0.51240  Biso   1.000  H
  C10      1.0000 0.79740  0.42000  0.59380  Biso   1.000  C
  C11      1.0000 0.38430  0.14200  0.56850  Biso   1.000  C
  H8       1.0000 0.29880  0.14510  0.57440  Biso   1.000  H
  H9       1.0000 0.40070  0.12340  0.49750  Biso   1.000  H
  C12      1.0000 0.43170  0.04570  0.63470  Biso   1.000  C
  U2       1.0000 0.98734  0.36579  0.72974  Biso   1.000  U
  O7       1.0000 0.12640  0.21740  0.79051  Biso   1.000  O
  O8       1.0000 0.00870  0.16620  0.66510  Biso   1.000  O
  O9       1.0000 0.65440  0.81960  0.90876  Biso   1.000  O
  O10      1.0000 0.66350  0.99340  0.84320  Biso   1.000  O
  O11      1.0000 0.98950  0.56540  0.79880  Biso   1.000  O
  O12      1.0000 0.10690  0.44210  0.87499  Biso   1.000  O
  C13      1.0000 0.07050  0.94090  0.81000  Biso   1.000  C
  C14      1.0000 0.96870  0.97850  0.85560  Biso   1.000  C
  H10      1.0000 0.93570  0.05230  0.83820  Biso   1.000  H
  C15      1.0000 0.91600  0.90750  0.92630  Biso   1.000  C
  C16      1.0000 0.96430  0.79930  0.95190  Biso   1.000  C
  H11      1.0000 0.92850  0.75140  0.00050  Biso   1.000  H
  C17      1.0000 0.06570  0.76090  0.90610  Biso   1.000  C
  C18      1.0000 0.11750  0.83230  0.83600  Biso   1.000  C
  H12      1.0000 0.18640  0.80660  0.80510  Biso   1.000  H
  C19      1.0000 0.13400  0.01610  0.73580  Biso   1.000  C
  H13      1.0000 0.21760  0.01790  0.75550  Biso   1.000  H
  H14      1.0000 0.12640  0.98010  0.66800  Biso   1.000  H
  C20      1.0000 0.08870  0.13970  0.73020  Biso   1.000  C
  C21      1.0000 0.80500  0.94810  0.97520  Biso   1.000  C
  H15      1.0000 0.79670  0.90810  0.04070  Biso   1.000  H
  H16      1.0000 0.80860  0.03350  0.98760  Biso   1.000  H
  C22      1.0000 0.70260  0.92000  0.90620  Biso   1.000  C
  C23      1.0000 0.11570  0.64200  0.93150  Biso   1.000  C
  H17      1.0000 0.20120  0.64510  0.92560  Biso   1.000  H
  H18      1.0000 0.09930  0.62340  0.00250  Biso   1.000  H
  C24      1.0000 0.06830  0.54570  0.86530  Biso   1.000  C
  U3       1.0000 0.48734  0.13421  0.22974  Biso   1.000  U
  O13      1.0000 0.62640  0.28260  0.29051  Biso   1.000  O
  O14      1.0000 0.50870  0.33380  0.16510  Biso   1.000  O
  O15      1.0000 0.15440  0.68040  0.40876  Biso   1.000  O
  O16      1.0000 0.16350  0.50660  0.34320  Biso   1.000  O
  O17      1.0000 0.48950  0.93460  0.29880  Biso   1.000  O
  O18      1.0000 0.60690  0.05790  0.37499  Biso   1.000  O
  C25      1.0000 0.57050  0.55910  0.31000  Biso   1.000  C
  C26      1.0000 0.46870  0.52150  0.35560  Biso   1.000  C
  H19      1.0000 0.43570  0.44770  0.33820  Biso   1.000  H
  C27      1.0000 0.41600  0.59250  0.42630  Biso   1.000  C
  C28      1.0000 0.46430  0.70070  0.45190  Biso   1.000  C
  H20      1.0000 0.42850  0.74860  0.50050  Biso   1.000  H
  C29      1.0000 0.56570  0.73910  0.40610  Biso   1.000  C
  C30      1.0000 0.61750  0.66770  0.33600  Biso   1.000  C
  H21      1.0000 0.68640  0.69340  0.30510  Biso   1.000  H
  C31      1.0000 0.63400  0.48390  0.23580  Biso   1.000  C
  H22      1.0000 0.71760  0.48210  0.25550  Biso   1.000  H
  H23      1.0000 0.62640  0.51990  0.16800  Biso   1.000  H
  C32      1.0000 0.58870  0.36030  0.23020  Biso   1.000  C
  C33      1.0000 0.30500  0.55190  0.47520  Biso   1.000  C
  H24      1.0000 0.29670  0.59190  0.54070  Biso   1.000  H
  H25      1.0000 0.30860  0.46650  0.48760  Biso   1.000  H
  C34      1.0000 0.20260  0.58000  0.40620  Biso   1.000  C
  C35      1.0000 0.61570  0.85800  0.43150  Biso   1.000  C
  H26      1.0000 0.70120  0.85490  0.42560  Biso   1.000  H
  H27      1.0000 0.59930  0.87660  0.50250  Biso   1.000  H
  C36      1.0000 0.56830  0.95430  0.36530  Biso   1.000  C
  U4       1.0000 0.01266  0.63421  0.27026  Biso   1.000  U
  O19      1.0000 0.87360  0.78260  0.20949  Biso   1.000  O
  O20      1.0000 0.99130  0.83380  0.33490  Biso   1.000  O
  O21      1.0000 0.34560  0.18040  0.09124  Biso   1.000  O
  O22      1.0000 0.33650  0.00660  0.15680  Biso   1.000  O
  O23      1.0000 0.01050  0.43460  0.20120  Biso   1.000  O
  O24      1.0000 0.89310  0.55790  0.12501  Biso   1.000  O
  C37      1.0000 0.92950  0.05910  0.19000  Biso   1.000  C
  C38      1.0000 0.03130  0.02150  0.14440  Biso   1.000  C
  H28      1.0000 0.06430  0.94770  0.16180  Biso   1.000  H
  C39      1.0000 0.08400  0.09250  0.07370  Biso   1.000  C
  C40      1.0000 0.03570  0.20070  0.04810  Biso   1.000  C
  H29      1.0000 0.07150  0.24860  0.99950  Biso   1.000  H
  C41      1.0000 0.93430  0.23910  0.09390  Biso   1.000  C
  C42      1.0000 0.88250  0.16770  0.16400  Biso   1.000  C
  H30      1.0000 0.81360  0.19340  0.19490  Biso   1.000  H
  C43      1.0000 0.86600  0.98390  0.26420  Biso   1.000  C
  H31      1.0000 0.78240  0.98210  0.24450  Biso   1.000  H
  H32      1.0000 0.87360  0.01990  0.33200  Biso   1.000  H
  C44      1.0000 0.91130  0.86030  0.26980  Biso   1.000  C
  C45      1.0000 0.19500  0.05190  0.02480  Biso   1.000  C
  H33      1.0000 0.20330  0.09190  0.95930  Biso   1.000  H
  H34      1.0000 0.19140  0.96650  0.01240  Biso   1.000  H
  C46      1.0000 0.29740  0.08000  0.09380  Biso   1.000  C
  C47      1.0000 0.88430  0.35800  0.06850  Biso   1.000  C
  H35      1.0000 0.79880  0.35490  0.07440  Biso   1.000  H
  H36      1.0000 0.90070  0.37660  0.99750  Biso   1.000  H
  C48      1.0000 0.93170  0.45430  0.13470  Biso   1.000  C
