data_image0
_cell_length_a       7.6724
_cell_length_b       13.749
_cell_length_c       8.71
_cell_angle_alpha    90
_cell_angle_beta     107.531
_cell_angle_gamma    90

_symmetry_space_group_name_H-M    "P 1"
_symmetry_int_tables_number       1

loop_
  _symmetry_equiv_pos_as_xyz
  'x, y, z'

loop_
  _atom_site_label
  _atom_site_occupancy
  _atom_site_fract_x
  _atom_site_fract_y
  _atom_site_fract_z
  _atom_site_thermal_displace_type
  _atom_site_B_iso_or_equiv
  _atom_site_type_symbol
  Cu1      1.0000 0.15400  0.14078  0.35914  Biso   1.000  Cu
  O1       1.0000 0.11628  0.16792  0.13005  Biso   1.000  O
  N1       1.0000 0.17516  0.08634  0.58332  Biso   1.000  N
  C1       1.0000 0.05730  0.01546  0.57997  Biso   1.000  C
  N2       1.0000 0.96893  0.03034  0.29464  Biso   1.000  N
  C2       1.0000 0.86260  0.00295  0.14846  Biso   1.000  C
  H1       1.0000 0.87640  0.03360  0.05500  Biso   1.000  H
  C3       1.0000 0.73260  0.93019  0.13250  Biso   1.000  C
  H2       1.0000 0.65620  0.91120  0.02930  Biso   1.000  H
  C4       1.0000 0.28260  0.11384  0.72960  Biso   1.000  C
  H3       1.0000 0.36990  0.16410  0.73800  Biso   1.000  H
  Cu2      1.0000 0.84600  0.64078  0.64086  Biso   1.000  Cu
  O2       1.0000 0.88372  0.66792  0.86995  Biso   1.000  O
  N3       1.0000 0.82484  0.58634  0.41668  Biso   1.000  N
  C5       1.0000 0.94270  0.51546  0.42003  Biso   1.000  C
  N4       1.0000 0.03107  0.53034  0.70536  Biso   1.000  N
  C6       1.0000 0.13740  0.50295  0.85154  Biso   1.000  C
  H4       1.0000 0.12360  0.53360  0.94500  Biso   1.000  H
  C7       1.0000 0.26740  0.43019  0.86750  Biso   1.000  C
  H5       1.0000 0.34380  0.41120  0.97070  Biso   1.000  H
  C8       1.0000 0.71740  0.61384  0.27040  Biso   1.000  C
  H6       1.0000 0.63010  0.66410  0.26200  Biso   1.000  H
  Cu3      1.0000 0.84600  0.85922  0.64086  Biso   1.000  Cu
  O3       1.0000 0.88372  0.83208  0.86995  Biso   1.000  O
  N5       1.0000 0.82484  0.91366  0.41668  Biso   1.000  N
  C9       1.0000 0.94270  0.98454  0.42003  Biso   1.000  C
  N6       1.0000 0.03107  0.96966  0.70536  Biso   1.000  N
  C10      1.0000 0.13740  0.99705  0.85154  Biso   1.000  C
  H7       1.0000 0.12360  0.96640  0.94500  Biso   1.000  H
  C11      1.0000 0.26740  0.06981  0.86750  Biso   1.000  C
  H8       1.0000 0.34380  0.08880  0.97070  Biso   1.000  H
  C12      1.0000 0.71740  0.88616  0.27040  Biso   1.000  C
  H9       1.0000 0.63010  0.83590  0.26200  Biso   1.000  H
  Cu4      1.0000 0.15400  0.35922  0.35914  Biso   1.000  Cu
  O4       1.0000 0.11628  0.33208  0.13005  Biso   1.000  O
  N7       1.0000 0.17516  0.41366  0.58332  Biso   1.000  N
  C13      1.0000 0.05730  0.48454  0.57997  Biso   1.000  C
  N8       1.0000 0.96893  0.46966  0.29464  Biso   1.000  N
  C14      1.0000 0.86260  0.49705  0.14846  Biso   1.000  C
  H10      1.0000 0.87640  0.46640  0.05500  Biso   1.000  H
  C15      1.0000 0.73260  0.56981  0.13250  Biso   1.000  C
  H11      1.0000 0.65620  0.58880  0.02930  Biso   1.000  H
  C16      1.0000 0.28260  0.38616  0.72960  Biso   1.000  C
  H12      1.0000 0.36990  0.33590  0.73800  Biso   1.000  H
  C17      1.0000 0.10120  0.25000  0.06470  Biso   1.000  C
  H13      1.0000 0.07490  0.25000  0.95090  Biso   1.000  H
  O5       1.0000 0.30670  0.25000  0.44450  Biso   1.000  O
  H14      1.0000 0.36800  0.25000  0.41600  Biso   1.000  H
  C18      1.0000 0.89880  0.75000  0.93530  Biso   1.000  C
  H15      1.0000 0.92510  0.75000  0.04910  Biso   1.000  H
  O6       1.0000 0.69330  0.75000  0.55550  Biso   1.000  O
  H16      1.0000 0.63200  0.75000  0.58400  Biso   1.000  H
