data_image0
_cell_length_a       46.4518
_cell_length_b       16.1574
_cell_length_c       22.0011
_cell_angle_alpha    90
_cell_angle_beta     97.903
_cell_angle_gamma    90

_symmetry_space_group_name_H-M    "P 1"
_symmetry_int_tables_number       1

loop_
  _symmetry_equiv_pos_as_xyz
  'x, y, z'

loop_
  _atom_site_label
  _atom_site_occupancy
  _atom_site_fract_x
  _atom_site_fract_y
  _atom_site_fract_z
  _atom_site_thermal_displace_type
  _atom_site_B_iso_or_equiv
  _atom_site_type_symbol
  W1       1.0000 0.58122  0.69800  0.36624  Biso   1.000  W
  W2       1.0000 0.61460  0.90109  0.59874  Biso   1.000  W
  W3       1.0000 0.66971  0.90229  0.41071  Biso   1.000  W
  W4       1.0000 0.67329  0.52562  0.41140  Biso   1.000  W
  W5       1.0000 0.59160  0.89789  0.44819  Biso   1.000  W
  W6       1.0000 0.70855  0.71592  0.64747  Biso   1.000  W
  W7       1.0000 0.63066  0.70594  0.68401  Biso   1.000  W
  W8       1.0000 0.62136  0.52454  0.61012  Biso   1.000  W
  W9       1.0000 0.66033  0.70239  0.33239  Biso   1.000  W
  W10      1.0000 0.59503  0.52134  0.44416  Biso   1.000  W
  W11      1.0000 0.69240  0.90948  0.56283  Biso   1.000  W
  W12      1.0000 0.69970  0.53274  0.57513  Biso   1.000  W
  W13      1.0000 0.54445  0.57806  0.55347  Biso   1.000  W
  W14      1.0000 0.55390  0.76251  0.62878  Biso   1.000  W
  W15      1.0000 0.53038  0.75882  0.47520  Biso   1.000  W
  P1       1.0000 0.60245  0.70670  0.52670  Biso   1.000  P
  P2       1.0000 0.68827  0.71530  0.48840  Biso   1.000  P
  Mn1      1.0000 0.73451  0.65446  0.39229  Biso   1.000  Mn
  Mn2      1.0000 0.75758  0.66220  0.53918  Biso   1.000  Mn
  O1       1.0000 0.52860  0.65100  0.48580  Biso   1.000  O
  O2       1.0000 0.52980  0.80110  0.55690  Biso   1.000  O
  O3       1.0000 0.55060  0.65310  0.62860  Biso   1.000  O
  O4       1.0000 0.61080  0.80000  0.52100  Biso   1.000  O
  O5       1.0000 0.68780  0.67190  0.55070  Biso   1.000  O
  O6       1.0000 0.67780  0.51030  0.49710  Biso   1.000  O
  O7       1.0000 0.54690  0.70950  0.41200  Biso   1.000  O
  O8       1.0000 0.65460  0.81250  0.36340  Biso   1.000  O
  O9       1.0000 0.62930  0.81610  0.65240  Biso   1.000  O
  O10      1.0000 0.67710  0.80470  0.49020  Biso   1.000  O
  O11      1.0000 0.66990  0.66560  0.43770  Biso   1.000  O
  O12      1.0000 0.71100  0.59810  0.64830  Biso   1.000  O
  O13      1.0000 0.61340  0.50340  0.52550  Biso   1.000  O
  O14      1.0000 0.57540  0.57930  0.37480  Biso   1.000  O
  O15      1.0000 0.58790  0.80820  0.39190  Biso   1.000  O
  O16      1.0000 0.55980  0.54390  0.48360  Biso   1.000  O
  O17      1.0000 0.62460  0.58750  0.68440  Biso   1.000  O
  O18      1.0000 0.74020  0.73080  0.61140  Biso   1.000  O
  O19      1.0000 0.58040  0.54810  0.60340  Biso   1.000  O
  O20      1.0000 0.69340  0.82050  0.62170  Biso   1.000  O
  O21      1.0000 0.62170  0.66460  0.58080  Biso   1.000  O
  O22      1.0000 0.60370  0.66300  0.46630  Biso   1.000  O
  O23      1.0000 0.55460  0.85260  0.47070  Biso   1.000  O
  O24      1.0000 0.57010  0.70400  0.54150  Biso   1.000  O
  O25      1.0000 0.59620  0.95180  0.52590  Biso   1.000  O
  O26      1.0000 0.69860  0.71040  0.33880  Biso   1.000  O
  O27      1.0000 0.70620  0.88280  0.40290  Biso   1.000  O
  O28      1.0000 0.58820  0.71670  0.67110  Biso   1.000  O
  O29      1.0000 0.66020  0.58300  0.33580  Biso   1.000  O
  O30      1.0000 0.68110  0.96360  0.48590  Biso   1.000  O
  O31      1.0000 0.71080  0.54570  0.40710  Biso   1.000  O
  O32      1.0000 0.65070  0.91230  0.57390  Biso   1.000  O
  O33      1.0000 0.57690  0.85400  0.60990  Biso   1.000  O
  O34      1.0000 0.73240  0.55610  0.54520  Biso   1.000  O
  O35      1.0000 0.72790  0.88070  0.54500  Biso   1.000  O
  O36      1.0000 0.65980  0.53390  0.60410  Biso   1.000  O
  O37      1.0000 0.61710  0.68640  0.34710  Biso   1.000  O
  O38      1.0000 0.62950  0.90810  0.43890  Biso   1.000  O
  O39      1.0000 0.62970  0.53180  0.41780  Biso   1.000  O
  O40      1.0000 0.66740  0.69570  0.67030  Biso   1.000  O
  O41      1.0000 0.71990  0.71680  0.47560  Biso   1.000  O
  W16      1.0000 0.91878  0.80200  0.63376  Biso   1.000  W
  W17      1.0000 0.88540  0.59891  0.40126  Biso   1.000  W
  W18      1.0000 0.83029  0.59771  0.58929  Biso   1.000  W
  W19      1.0000 0.82671  0.97438  0.58860  Biso   1.000  W
  W20      1.0000 0.90840  0.60211  0.55181  Biso   1.000  W
  W21      1.0000 0.79145  0.78408  0.35253  Biso   1.000  W
  W22      1.0000 0.86934  0.79406  0.31599  Biso   1.000  W
  W23      1.0000 0.87864  0.97546  0.38988  Biso   1.000  W
  W24      1.0000 0.83967  0.79761  0.66761  Biso   1.000  W
  W25      1.0000 0.90497  0.97866  0.55584  Biso   1.000  W
  W26      1.0000 0.80760  0.59052  0.43717  Biso   1.000  W
  W27      1.0000 0.80030  0.96726  0.42487  Biso   1.000  W
  W28      1.0000 0.95555  0.92194  0.44653  Biso   1.000  W
  W29      1.0000 0.94610  0.73749  0.37122  Biso   1.000  W
  W30      1.0000 0.96962  0.74118  0.52480  Biso   1.000  W
  P3       1.0000 0.89755  0.79330  0.47330  Biso   1.000  P
  P4       1.0000 0.81173  0.78470  0.51160  Biso   1.000  P
  Mn3      1.0000 0.76549  0.84554  0.60771  Biso   1.000  Mn
  Mn4      1.0000 0.74242  0.83780  0.46082  Biso   1.000  Mn
  O42      1.0000 0.97140  0.84900  0.51420  Biso   1.000  O
  O43      1.0000 0.97020  0.69890  0.44310  Biso   1.000  O
  O44      1.0000 0.94940  0.84690  0.37140  Biso   1.000  O
  O45      1.0000 0.88920  0.70000  0.47900  Biso   1.000  O
  O46      1.0000 0.81220  0.82810  0.44930  Biso   1.000  O
  O47      1.0000 0.82220  0.98970  0.50290  Biso   1.000  O
  O48      1.0000 0.95310  0.79050  0.58800  Biso   1.000  O
  O49      1.0000 0.84540  0.68750  0.63660  Biso   1.000  O
  O50      1.0000 0.87070  0.68390  0.34760  Biso   1.000  O
  O51      1.0000 0.82290  0.69530  0.50980  Biso   1.000  O
  O52      1.0000 0.83010  0.83440  0.56230  Biso   1.000  O
  O53      1.0000 0.78900  0.90190  0.35170  Biso   1.000  O
  O54      1.0000 0.88660  0.99660  0.47450  Biso   1.000  O
  O55      1.0000 0.92460  0.92070  0.62520  Biso   1.000  O
  O56      1.0000 0.91210  0.69180  0.60810  Biso   1.000  O
  O57      1.0000 0.94020  0.95610  0.51640  Biso   1.000  O
  O58      1.0000 0.87540  0.91250  0.31560  Biso   1.000  O
  O59      1.0000 0.75980  0.76920  0.38860  Biso   1.000  O
  O60      1.0000 0.91960  0.95190  0.39660  Biso   1.000  O
  O61      1.0000 0.80660  0.67950  0.37830  Biso   1.000  O
  O62      1.0000 0.87830  0.83540  0.41920  Biso   1.000  O
  O63      1.0000 0.89630  0.83700  0.53370  Biso   1.000  O
  O64      1.0000 0.94540  0.64740  0.52930  Biso   1.000  O
  O65      1.0000 0.92990  0.79600  0.45850  Biso   1.000  O
  O66      1.0000 0.90380  0.54820  0.47410  Biso   1.000  O
  O67      1.0000 0.80140  0.78960  0.66120  Biso   1.000  O
  O68      1.0000 0.79380  0.61720  0.59710  Biso   1.000  O
  O69      1.0000 0.91180  0.78330  0.32890  Biso   1.000  O
  O70      1.0000 0.83980  0.91700  0.66420  Biso   1.000  O
  O71      1.0000 0.81890  0.53640  0.51410  Biso   1.000  O
  O72      1.0000 0.78920  0.95430  0.59290  Biso   1.000  O
  O73      1.0000 0.84930  0.58770  0.42610  Biso   1.000  O
  O74      1.0000 0.92310  0.64600  0.39010  Biso   1.000  O
  O75      1.0000 0.76760  0.94390  0.45480  Biso   1.000  O
  O76      1.0000 0.77210  0.61930  0.45500  Biso   1.000  O
  O77      1.0000 0.84020  0.96610  0.39590  Biso   1.000  O
  O78      1.0000 0.88290  0.81360  0.65290  Biso   1.000  O
  O79      1.0000 0.87050  0.59190  0.56110  Biso   1.000  O
  O80      1.0000 0.87030  0.96820  0.58220  Biso   1.000  O
  O81      1.0000 0.83260  0.80430  0.32970  Biso   1.000  O
  O82      1.0000 0.78010  0.78320  0.52440  Biso   1.000  O
  W31      1.0000 0.08122  0.19800  0.36624  Biso   1.000  W
  W32      1.0000 0.11460  0.40109  0.59874  Biso   1.000  W
  W33      1.0000 0.16971  0.40229  0.41071  Biso   1.000  W
  W34      1.0000 0.17329  0.02562  0.41140  Biso   1.000  W
  W35      1.0000 0.09160  0.39789  0.44819  Biso   1.000  W
  W36      1.0000 0.20855  0.21592  0.64747  Biso   1.000  W
  W37      1.0000 0.13066  0.20594  0.68401  Biso   1.000  W
  W38      1.0000 0.12136  0.02454  0.61012  Biso   1.000  W
  W39      1.0000 0.16033  0.20239  0.33239  Biso   1.000  W
  W40      1.0000 0.09503  0.02134  0.44416  Biso   1.000  W
  W41      1.0000 0.19240  0.40948  0.56283  Biso   1.000  W
  W42      1.0000 0.19970  0.03274  0.57513  Biso   1.000  W
  W43      1.0000 0.04445  0.07806  0.55347  Biso   1.000  W
  W44      1.0000 0.05390  0.26251  0.62878  Biso   1.000  W
  W45      1.0000 0.03038  0.25882  0.47520  Biso   1.000  W
  P5       1.0000 0.10245  0.20670  0.52670  Biso   1.000  P
  P6       1.0000 0.18827  0.21530  0.48840  Biso   1.000  P
  Mn5      1.0000 0.23451  0.15446  0.39229  Biso   1.000  Mn
  Mn6      1.0000 0.25758  0.16220  0.53918  Biso   1.000  Mn
  O83      1.0000 0.02860  0.15100  0.48580  Biso   1.000  O
  O84      1.0000 0.02980  0.30110  0.55690  Biso   1.000  O
  O85      1.0000 0.05060  0.15310  0.62860  Biso   1.000  O
  O86      1.0000 0.11080  0.30000  0.52100  Biso   1.000  O
  O87      1.0000 0.18780  0.17190  0.55070  Biso   1.000  O
  O88      1.0000 0.17780  0.01030  0.49710  Biso   1.000  O
  O89      1.0000 0.04690  0.20950  0.41200  Biso   1.000  O
  O90      1.0000 0.15460  0.31250  0.36340  Biso   1.000  O
  O91      1.0000 0.12930  0.31610  0.65240  Biso   1.000  O
  O92      1.0000 0.17710  0.30470  0.49020  Biso   1.000  O
  O93      1.0000 0.16990  0.16560  0.43770  Biso   1.000  O
  O94      1.0000 0.21100  0.09810  0.64830  Biso   1.000  O
  O95      1.0000 0.11340  0.00340  0.52550  Biso   1.000  O
  O96      1.0000 0.07540  0.07930  0.37480  Biso   1.000  O
  O97      1.0000 0.08790  0.30820  0.39190  Biso   1.000  O
  O98      1.0000 0.05980  0.04390  0.48360  Biso   1.000  O
  O99      1.0000 0.12460  0.08750  0.68440  Biso   1.000  O
  O100     1.0000 0.24020  0.23080  0.61140  Biso   1.000  O
  O101     1.0000 0.08040  0.04810  0.60340  Biso   1.000  O
  O102     1.0000 0.19340  0.32050  0.62170  Biso   1.000  O
  O103     1.0000 0.12170  0.16460  0.58080  Biso   1.000  O
  O104     1.0000 0.10370  0.16300  0.46630  Biso   1.000  O
  O105     1.0000 0.05460  0.35260  0.47070  Biso   1.000  O
  O106     1.0000 0.07010  0.20400  0.54150  Biso   1.000  O
  O107     1.0000 0.09620  0.45180  0.52590  Biso   1.000  O
  O108     1.0000 0.19860  0.21040  0.33880  Biso   1.000  O
  O109     1.0000 0.20620  0.38280  0.40290  Biso   1.000  O
  O110     1.0000 0.08820  0.21670  0.67110  Biso   1.000  O
  O111     1.0000 0.16020  0.08300  0.33580  Biso   1.000  O
  O112     1.0000 0.18110  0.46360  0.48590  Biso   1.000  O
  O113     1.0000 0.21080  0.04570  0.40710  Biso   1.000  O
  O114     1.0000 0.15070  0.41230  0.57390  Biso   1.000  O
  O115     1.0000 0.07690  0.35400  0.60990  Biso   1.000  O
  O116     1.0000 0.23240  0.05610  0.54520  Biso   1.000  O
  O117     1.0000 0.22790  0.38070  0.54500  Biso   1.000  O
  O118     1.0000 0.15980  0.03390  0.60410  Biso   1.000  O
  O119     1.0000 0.11710  0.18640  0.34710  Biso   1.000  O
  O120     1.0000 0.12950  0.40810  0.43890  Biso   1.000  O
  O121     1.0000 0.12970  0.03180  0.41780  Biso   1.000  O
  O122     1.0000 0.16740  0.19570  0.67030  Biso   1.000  O
  O123     1.0000 0.21990  0.21680  0.47560  Biso   1.000  O
  W46      1.0000 0.41878  0.30200  0.63376  Biso   1.000  W
  W47      1.0000 0.38540  0.09891  0.40126  Biso   1.000  W
  W48      1.0000 0.33029  0.09771  0.58929  Biso   1.000  W
  W49      1.0000 0.32671  0.47438  0.58860  Biso   1.000  W
  W50      1.0000 0.40840  0.10211  0.55181  Biso   1.000  W
  W51      1.0000 0.29145  0.28408  0.35253  Biso   1.000  W
  W52      1.0000 0.36934  0.29406  0.31599  Biso   1.000  W
  W53      1.0000 0.37864  0.47546  0.38988  Biso   1.000  W
  W54      1.0000 0.33967  0.29761  0.66761  Biso   1.000  W
  W55      1.0000 0.40497  0.47866  0.55584  Biso   1.000  W
  W56      1.0000 0.30760  0.09052  0.43717  Biso   1.000  W
  W57      1.0000 0.30030  0.46726  0.42487  Biso   1.000  W
  W58      1.0000 0.45555  0.42194  0.44653  Biso   1.000  W
  W59      1.0000 0.44610  0.23749  0.37122  Biso   1.000  W
  W60      1.0000 0.46962  0.24118  0.52480  Biso   1.000  W
  P7       1.0000 0.39755  0.29330  0.47330  Biso   1.000  P
  P8       1.0000 0.31173  0.28470  0.51160  Biso   1.000  P
  Mn7      1.0000 0.26549  0.34554  0.60771  Biso   1.000  Mn
  Mn8      1.0000 0.24242  0.33780  0.46082  Biso   1.000  Mn
  O124     1.0000 0.47140  0.34900  0.51420  Biso   1.000  O
  O125     1.0000 0.47020  0.19890  0.44310  Biso   1.000  O
  O126     1.0000 0.44940  0.34690  0.37140  Biso   1.000  O
  O127     1.0000 0.38920  0.20000  0.47900  Biso   1.000  O
  O128     1.0000 0.31220  0.32810  0.44930  Biso   1.000  O
  O129     1.0000 0.32220  0.48970  0.50290  Biso   1.000  O
  O130     1.0000 0.45310  0.29050  0.58800  Biso   1.000  O
  O131     1.0000 0.34540  0.18750  0.63660  Biso   1.000  O
  O132     1.0000 0.37070  0.18390  0.34760  Biso   1.000  O
  O133     1.0000 0.32290  0.19530  0.50980  Biso   1.000  O
  O134     1.0000 0.33010  0.33440  0.56230  Biso   1.000  O
  O135     1.0000 0.28900  0.40190  0.35170  Biso   1.000  O
  O136     1.0000 0.38660  0.49660  0.47450  Biso   1.000  O
  O137     1.0000 0.42460  0.42070  0.62520  Biso   1.000  O
  O138     1.0000 0.41210  0.19180  0.60810  Biso   1.000  O
  O139     1.0000 0.44020  0.45610  0.51640  Biso   1.000  O
  O140     1.0000 0.37540  0.41250  0.31560  Biso   1.000  O
  O141     1.0000 0.25980  0.26920  0.38860  Biso   1.000  O
  O142     1.0000 0.41960  0.45190  0.39660  Biso   1.000  O
  O143     1.0000 0.30660  0.17950  0.37830  Biso   1.000  O
  O144     1.0000 0.37830  0.33540  0.41920  Biso   1.000  O
  O145     1.0000 0.39630  0.33700  0.53370  Biso   1.000  O
  O146     1.0000 0.44540  0.14740  0.52930  Biso   1.000  O
  O147     1.0000 0.42990  0.29600  0.45850  Biso   1.000  O
  O148     1.0000 0.40380  0.04820  0.47410  Biso   1.000  O
  O149     1.0000 0.30140  0.28960  0.66120  Biso   1.000  O
  O150     1.0000 0.29380  0.11720  0.59710  Biso   1.000  O
  O151     1.0000 0.41180  0.28330  0.32890  Biso   1.000  O
  O152     1.0000 0.33980  0.41700  0.66420  Biso   1.000  O
  O153     1.0000 0.31890  0.03640  0.51410  Biso   1.000  O
  O154     1.0000 0.28920  0.45430  0.59290  Biso   1.000  O
  O155     1.0000 0.34930  0.08770  0.42610  Biso   1.000  O
  O156     1.0000 0.42310  0.14600  0.39010  Biso   1.000  O
  O157     1.0000 0.26760  0.44390  0.45480  Biso   1.000  O
  O158     1.0000 0.27210  0.11930  0.45500  Biso   1.000  O
  O159     1.0000 0.34020  0.46610  0.39590  Biso   1.000  O
  O160     1.0000 0.38290  0.31360  0.65290  Biso   1.000  O
  O161     1.0000 0.37050  0.09190  0.56110  Biso   1.000  O
  O162     1.0000 0.37030  0.46820  0.58220  Biso   1.000  O
  O163     1.0000 0.33260  0.30430  0.32970  Biso   1.000  O
  O164     1.0000 0.28010  0.28320  0.52440  Biso   1.000  O
  W61      1.0000 0.41878  0.69800  0.13376  Biso   1.000  W
  W62      1.0000 0.38540  0.90109  0.90126  Biso   1.000  W
  W63      1.0000 0.33029  0.90229  0.08929  Biso   1.000  W
  W64      1.0000 0.32671  0.52562  0.08860  Biso   1.000  W
  W65      1.0000 0.40840  0.89789  0.05181  Biso   1.000  W
  W66      1.0000 0.29145  0.71592  0.85253  Biso   1.000  W
  W67      1.0000 0.36934  0.70594  0.81599  Biso   1.000  W
  W68      1.0000 0.37864  0.52454  0.88988  Biso   1.000  W
  W69      1.0000 0.33967  0.70239  0.16761  Biso   1.000  W
  W70      1.0000 0.40497  0.52134  0.05584  Biso   1.000  W
  W71      1.0000 0.30760  0.90948  0.93717  Biso   1.000  W
  W72      1.0000 0.30030  0.53274  0.92487  Biso   1.000  W
  W73      1.0000 0.45555  0.57806  0.94653  Biso   1.000  W
  W74      1.0000 0.44610  0.76251  0.87122  Biso   1.000  W
  W75      1.0000 0.46962  0.75882  0.02480  Biso   1.000  W
  P9       1.0000 0.39755  0.70670  0.97330  Biso   1.000  P
  P10      1.0000 0.31173  0.71530  0.01160  Biso   1.000  P
  Mn9      1.0000 0.26549  0.65446  0.10771  Biso   1.000  Mn
  Mn10     1.0000 0.24242  0.66220  0.96082  Biso   1.000  Mn
  O165     1.0000 0.47140  0.65100  0.01420  Biso   1.000  O
  O166     1.0000 0.47020  0.80110  0.94310  Biso   1.000  O
  O167     1.0000 0.44940  0.65310  0.87140  Biso   1.000  O
  O168     1.0000 0.38920  0.80000  0.97900  Biso   1.000  O
  O169     1.0000 0.31220  0.67190  0.94930  Biso   1.000  O
  O170     1.0000 0.32220  0.51030  0.00290  Biso   1.000  O
  O171     1.0000 0.45310  0.70950  0.08800  Biso   1.000  O
  O172     1.0000 0.34540  0.81250  0.13660  Biso   1.000  O
  O173     1.0000 0.37070  0.81610  0.84760  Biso   1.000  O
  O174     1.0000 0.32290  0.80470  0.00980  Biso   1.000  O
  O175     1.0000 0.33010  0.66560  0.06230  Biso   1.000  O
  O176     1.0000 0.28900  0.59810  0.85170  Biso   1.000  O
  O177     1.0000 0.38660  0.50340  0.97450  Biso   1.000  O
  O178     1.0000 0.42460  0.57930  0.12520  Biso   1.000  O
  O179     1.0000 0.41210  0.80820  0.10810  Biso   1.000  O
  O180     1.0000 0.44020  0.54390  0.01640  Biso   1.000  O
  O181     1.0000 0.37540  0.58750  0.81560  Biso   1.000  O
  O182     1.0000 0.25980  0.73080  0.88860  Biso   1.000  O
  O183     1.0000 0.41960  0.54810  0.89660  Biso   1.000  O
  O184     1.0000 0.30660  0.82050  0.87830  Biso   1.000  O
  O185     1.0000 0.37830  0.66460  0.91920  Biso   1.000  O
  O186     1.0000 0.39630  0.66300  0.03370  Biso   1.000  O
  O187     1.0000 0.44540  0.85260  0.02930  Biso   1.000  O
  O188     1.0000 0.42990  0.70400  0.95850  Biso   1.000  O
  O189     1.0000 0.40380  0.95180  0.97410  Biso   1.000  O
  O190     1.0000 0.30140  0.71040  0.16120  Biso   1.000  O
  O191     1.0000 0.29380  0.88280  0.09710  Biso   1.000  O
  O192     1.0000 0.41180  0.71670  0.82890  Biso   1.000  O
  O193     1.0000 0.33980  0.58300  0.16420  Biso   1.000  O
  O194     1.0000 0.31890  0.96360  0.01410  Biso   1.000  O
  O195     1.0000 0.28920  0.54570  0.09290  Biso   1.000  O
  O196     1.0000 0.34930  0.91230  0.92610  Biso   1.000  O
  O197     1.0000 0.42310  0.85400  0.89010  Biso   1.000  O
  O198     1.0000 0.26760  0.55610  0.95480  Biso   1.000  O
  O199     1.0000 0.27210  0.88070  0.95500  Biso   1.000  O
  O200     1.0000 0.34020  0.53390  0.89590  Biso   1.000  O
  O201     1.0000 0.38290  0.68640  0.15290  Biso   1.000  O
  O202     1.0000 0.37050  0.90810  0.06110  Biso   1.000  O
  O203     1.0000 0.37030  0.53180  0.08220  Biso   1.000  O
  O204     1.0000 0.33260  0.69570  0.82970  Biso   1.000  O
  O205     1.0000 0.28010  0.71680  0.02440  Biso   1.000  O
  W76      1.0000 0.08122  0.80200  0.86624  Biso   1.000  W
  W77      1.0000 0.11460  0.59891  0.09874  Biso   1.000  W
  W78      1.0000 0.16971  0.59771  0.91071  Biso   1.000  W
  W79      1.0000 0.17329  0.97438  0.91140  Biso   1.000  W
  W80      1.0000 0.09160  0.60211  0.94819  Biso   1.000  W
  W81      1.0000 0.20855  0.78408  0.14747  Biso   1.000  W
  W82      1.0000 0.13066  0.79406  0.18401  Biso   1.000  W
  W83      1.0000 0.12136  0.97546  0.11012  Biso   1.000  W
  W84      1.0000 0.16033  0.79761  0.83239  Biso   1.000  W
  W85      1.0000 0.09503  0.97866  0.94416  Biso   1.000  W
  W86      1.0000 0.19240  0.59052  0.06283  Biso   1.000  W
  W87      1.0000 0.19970  0.96726  0.07513  Biso   1.000  W
  W88      1.0000 0.04445  0.92194  0.05347  Biso   1.000  W
  W89      1.0000 0.05390  0.73749  0.12878  Biso   1.000  W
  W90      1.0000 0.03038  0.74118  0.97520  Biso   1.000  W
  P11      1.0000 0.10245  0.79330  0.02670  Biso   1.000  P
  P12      1.0000 0.18827  0.78470  0.98840  Biso   1.000  P
  Mn11     1.0000 0.23451  0.84554  0.89229  Biso   1.000  Mn
  Mn12     1.0000 0.25758  0.83780  0.03918  Biso   1.000  Mn
  O206     1.0000 0.02860  0.84900  0.98580  Biso   1.000  O
  O207     1.0000 0.02980  0.69890  0.05690  Biso   1.000  O
  O208     1.0000 0.05060  0.84690  0.12860  Biso   1.000  O
  O209     1.0000 0.11080  0.70000  0.02100  Biso   1.000  O
  O210     1.0000 0.18780  0.82810  0.05070  Biso   1.000  O
  O211     1.0000 0.17780  0.98970  0.99710  Biso   1.000  O
  O212     1.0000 0.04690  0.79050  0.91200  Biso   1.000  O
  O213     1.0000 0.15460  0.68750  0.86340  Biso   1.000  O
  O214     1.0000 0.12930  0.68390  0.15240  Biso   1.000  O
  O215     1.0000 0.17710  0.69530  0.99020  Biso   1.000  O
  O216     1.0000 0.16990  0.83440  0.93770  Biso   1.000  O
  O217     1.0000 0.21100  0.90190  0.14830  Biso   1.000  O
  O218     1.0000 0.11340  0.99660  0.02550  Biso   1.000  O
  O219     1.0000 0.07540  0.92070  0.87480  Biso   1.000  O
  O220     1.0000 0.08790  0.69180  0.89190  Biso   1.000  O
  O221     1.0000 0.05980  0.95610  0.98360  Biso   1.000  O
  O222     1.0000 0.12460  0.91250  0.18440  Biso   1.000  O
  O223     1.0000 0.24020  0.76920  0.11140  Biso   1.000  O
  O224     1.0000 0.08040  0.95190  0.10340  Biso   1.000  O
  O225     1.0000 0.19340  0.67950  0.12170  Biso   1.000  O
  O226     1.0000 0.12170  0.83540  0.08080  Biso   1.000  O
  O227     1.0000 0.10370  0.83700  0.96630  Biso   1.000  O
  O228     1.0000 0.05460  0.64740  0.97070  Biso   1.000  O
  O229     1.0000 0.07010  0.79600  0.04150  Biso   1.000  O
  O230     1.0000 0.09620  0.54820  0.02590  Biso   1.000  O
  O231     1.0000 0.19860  0.78960  0.83880  Biso   1.000  O
  O232     1.0000 0.20620  0.61720  0.90290  Biso   1.000  O
  O233     1.0000 0.08820  0.78330  0.17110  Biso   1.000  O
  O234     1.0000 0.16020  0.91700  0.83580  Biso   1.000  O
  O235     1.0000 0.18110  0.53640  0.98590  Biso   1.000  O
  O236     1.0000 0.21080  0.95430  0.90710  Biso   1.000  O
  O237     1.0000 0.15070  0.58770  0.07390  Biso   1.000  O
  O238     1.0000 0.07690  0.64600  0.10990  Biso   1.000  O
  O239     1.0000 0.23240  0.94390  0.04520  Biso   1.000  O
  O240     1.0000 0.22790  0.61930  0.04500  Biso   1.000  O
  O241     1.0000 0.15980  0.96610  0.10410  Biso   1.000  O
  O242     1.0000 0.11710  0.81360  0.84710  Biso   1.000  O
  O243     1.0000 0.12950  0.59190  0.93890  Biso   1.000  O
  O244     1.0000 0.12970  0.96820  0.91780  Biso   1.000  O
  O245     1.0000 0.16740  0.80430  0.17030  Biso   1.000  O
  O246     1.0000 0.21990  0.78320  0.97560  Biso   1.000  O
  W91      1.0000 0.91878  0.19800  0.13376  Biso   1.000  W
  W92      1.0000 0.88540  0.40109  0.90126  Biso   1.000  W
  W93      1.0000 0.83029  0.40229  0.08929  Biso   1.000  W
  W94      1.0000 0.82671  0.02562  0.08860  Biso   1.000  W
  W95      1.0000 0.90840  0.39789  0.05181  Biso   1.000  W
  W96      1.0000 0.79145  0.21592  0.85253  Biso   1.000  W
  W97      1.0000 0.86934  0.20594  0.81599  Biso   1.000  W
  W98      1.0000 0.87864  0.02454  0.88988  Biso   1.000  W
  W99      1.0000 0.83967  0.20239  0.16761  Biso   1.000  W
  W100     1.0000 0.90497  0.02134  0.05584  Biso   1.000  W
  W101     1.0000 0.80760  0.40948  0.93717  Biso   1.000  W
  W102     1.0000 0.80030  0.03274  0.92487  Biso   1.000  W
  W103     1.0000 0.95555  0.07806  0.94653  Biso   1.000  W
  W104     1.0000 0.94610  0.26251  0.87122  Biso   1.000  W
  W105     1.0000 0.96962  0.25882  0.02480  Biso   1.000  W
  P13      1.0000 0.89755  0.20670  0.97330  Biso   1.000  P
  P14      1.0000 0.81173  0.21530  0.01160  Biso   1.000  P
  Mn13     1.0000 0.76549  0.15446  0.10771  Biso   1.000  Mn
  Mn14     1.0000 0.74242  0.16220  0.96082  Biso   1.000  Mn
  O247     1.0000 0.97140  0.15100  0.01420  Biso   1.000  O
  O248     1.0000 0.97020  0.30110  0.94310  Biso   1.000  O
  O249     1.0000 0.94940  0.15310  0.87140  Biso   1.000  O
  O250     1.0000 0.88920  0.30000  0.97900  Biso   1.000  O
  O251     1.0000 0.81220  0.17190  0.94930  Biso   1.000  O
  O252     1.0000 0.82220  0.01030  0.00290  Biso   1.000  O
  O253     1.0000 0.95310  0.20950  0.08800  Biso   1.000  O
  O254     1.0000 0.84540  0.31250  0.13660  Biso   1.000  O
  O255     1.0000 0.87070  0.31610  0.84760  Biso   1.000  O
  O256     1.0000 0.82290  0.30470  0.00980  Biso   1.000  O
  O257     1.0000 0.83010  0.16560  0.06230  Biso   1.000  O
  O258     1.0000 0.78900  0.09810  0.85170  Biso   1.000  O
  O259     1.0000 0.88660  0.00340  0.97450  Biso   1.000  O
  O260     1.0000 0.92460  0.07930  0.12520  Biso   1.000  O
  O261     1.0000 0.91210  0.30820  0.10810  Biso   1.000  O
  O262     1.0000 0.94020  0.04390  0.01640  Biso   1.000  O
  O263     1.0000 0.87540  0.08750  0.81560  Biso   1.000  O
  O264     1.0000 0.75980  0.23080  0.88860  Biso   1.000  O
  O265     1.0000 0.91960  0.04810  0.89660  Biso   1.000  O
  O266     1.0000 0.80660  0.32050  0.87830  Biso   1.000  O
  O267     1.0000 0.87830  0.16460  0.91920  Biso   1.000  O
  O268     1.0000 0.89630  0.16300  0.03370  Biso   1.000  O
  O269     1.0000 0.94540  0.35260  0.02930  Biso   1.000  O
  O270     1.0000 0.92990  0.20400  0.95850  Biso   1.000  O
  O271     1.0000 0.90380  0.45180  0.97410  Biso   1.000  O
  O272     1.0000 0.80140  0.21040  0.16120  Biso   1.000  O
  O273     1.0000 0.79380  0.38280  0.09710  Biso   1.000  O
  O274     1.0000 0.91180  0.21670  0.82890  Biso   1.000  O
  O275     1.0000 0.83980  0.08300  0.16420  Biso   1.000  O
  O276     1.0000 0.81890  0.46360  0.01410  Biso   1.000  O
  O277     1.0000 0.78920  0.04570  0.09290  Biso   1.000  O
  O278     1.0000 0.84930  0.41230  0.92610  Biso   1.000  O
  O279     1.0000 0.92310  0.35400  0.89010  Biso   1.000  O
  O280     1.0000 0.76760  0.05610  0.95480  Biso   1.000  O
  O281     1.0000 0.77210  0.38070  0.95500  Biso   1.000  O
  O282     1.0000 0.84020  0.03390  0.89590  Biso   1.000  O
  O283     1.0000 0.88290  0.18640  0.15290  Biso   1.000  O
  O284     1.0000 0.87050  0.40810  0.06110  Biso   1.000  O
  O285     1.0000 0.87030  0.03180  0.08220  Biso   1.000  O
  O286     1.0000 0.83260  0.19570  0.82970  Biso   1.000  O
  O287     1.0000 0.78010  0.21680  0.02440  Biso   1.000  O
  W106     1.0000 0.58122  0.30200  0.86624  Biso   1.000  W
  W107     1.0000 0.61460  0.09891  0.09874  Biso   1.000  W
  W108     1.0000 0.66971  0.09771  0.91071  Biso   1.000  W
  W109     1.0000 0.67329  0.47438  0.91140  Biso   1.000  W
  W110     1.0000 0.59160  0.10211  0.94819  Biso   1.000  W
  W111     1.0000 0.70855  0.28408  0.14747  Biso   1.000  W
  W112     1.0000 0.63066  0.29406  0.18401  Biso   1.000  W
  W113     1.0000 0.62136  0.47546  0.11012  Biso   1.000  W
  W114     1.0000 0.66033  0.29761  0.83239  Biso   1.000  W
  W115     1.0000 0.59503  0.47866  0.94416  Biso   1.000  W
  W116     1.0000 0.69240  0.09052  0.06283  Biso   1.000  W
  W117     1.0000 0.69970  0.46726  0.07513  Biso   1.000  W
  W118     1.0000 0.54445  0.42194  0.05347  Biso   1.000  W
  W119     1.0000 0.55390  0.23749  0.12878  Biso   1.000  W
  W120     1.0000 0.53038  0.24118  0.97520  Biso   1.000  W
  P15      1.0000 0.60245  0.29330  0.02670  Biso   1.000  P
  P16      1.0000 0.68827  0.28470  0.98840  Biso   1.000  P
  Mn15     1.0000 0.73451  0.34554  0.89229  Biso   1.000  Mn
  Mn16     1.0000 0.75758  0.33780  0.03918  Biso   1.000  Mn
  O288     1.0000 0.52860  0.34900  0.98580  Biso   1.000  O
  O289     1.0000 0.52980  0.19890  0.05690  Biso   1.000  O
  O290     1.0000 0.55060  0.34690  0.12860  Biso   1.000  O
  O291     1.0000 0.61080  0.20000  0.02100  Biso   1.000  O
  O292     1.0000 0.68780  0.32810  0.05070  Biso   1.000  O
  O293     1.0000 0.67780  0.48970  0.99710  Biso   1.000  O
  O294     1.0000 0.54690  0.29050  0.91200  Biso   1.000  O
  O295     1.0000 0.65460  0.18750  0.86340  Biso   1.000  O
  O296     1.0000 0.62930  0.18390  0.15240  Biso   1.000  O
  O297     1.0000 0.67710  0.19530  0.99020  Biso   1.000  O
  O298     1.0000 0.66990  0.33440  0.93770  Biso   1.000  O
  O299     1.0000 0.71100  0.40190  0.14830  Biso   1.000  O
  O300     1.0000 0.61340  0.49660  0.02550  Biso   1.000  O
  O301     1.0000 0.57540  0.42070  0.87480  Biso   1.000  O
  O302     1.0000 0.58790  0.19180  0.89190  Biso   1.000  O
  O303     1.0000 0.55980  0.45610  0.98360  Biso   1.000  O
  O304     1.0000 0.62460  0.41250  0.18440  Biso   1.000  O
  O305     1.0000 0.74020  0.26920  0.11140  Biso   1.000  O
  O306     1.0000 0.58040  0.45190  0.10340  Biso   1.000  O
  O307     1.0000 0.69340  0.17950  0.12170  Biso   1.000  O
  O308     1.0000 0.62170  0.33540  0.08080  Biso   1.000  O
  O309     1.0000 0.60370  0.33700  0.96630  Biso   1.000  O
  O310     1.0000 0.55460  0.14740  0.97070  Biso   1.000  O
  O311     1.0000 0.57010  0.29600  0.04150  Biso   1.000  O
  O312     1.0000 0.59620  0.04820  0.02590  Biso   1.000  O
  O313     1.0000 0.69860  0.28960  0.83880  Biso   1.000  O
  O314     1.0000 0.70620  0.11720  0.90290  Biso   1.000  O
  O315     1.0000 0.58820  0.28330  0.17110  Biso   1.000  O
  O316     1.0000 0.66020  0.41700  0.83580  Biso   1.000  O
  O317     1.0000 0.68110  0.03640  0.98590  Biso   1.000  O
  O318     1.0000 0.71080  0.45430  0.90710  Biso   1.000  O
  O319     1.0000 0.65070  0.08770  0.07390  Biso   1.000  O
  O320     1.0000 0.57690  0.14600  0.10990  Biso   1.000  O
  O321     1.0000 0.73240  0.44390  0.04520  Biso   1.000  O
  O322     1.0000 0.72790  0.11930  0.04500  Biso   1.000  O
  O323     1.0000 0.65980  0.46610  0.10410  Biso   1.000  O
  O324     1.0000 0.61710  0.31360  0.84710  Biso   1.000  O
  O325     1.0000 0.62950  0.09190  0.93890  Biso   1.000  O
  O326     1.0000 0.62970  0.46820  0.91780  Biso   1.000  O
  O327     1.0000 0.66740  0.30430  0.17030  Biso   1.000  O
  O328     1.0000 0.71990  0.28320  0.97560  Biso   1.000  O
