data_image0
_cell_length_a       13.1066
_cell_length_b       13.1066
_cell_length_c       8.7701
_cell_angle_alpha    90
_cell_angle_beta     90
_cell_angle_gamma    120

_symmetry_space_group_name_H-M    "P 1"
_symmetry_int_tables_number       1

loop_
  _symmetry_equiv_pos_as_xyz
  'x, y, z'

loop_
  _atom_site_label
  _atom_site_occupancy
  _atom_site_fract_x
  _atom_site_fract_y
  _atom_site_fract_z
  _atom_site_thermal_displace_type
  _atom_site_B_iso_or_equiv
  _atom_site_type_symbol
  O1       1.0000 0.65371  0.20482  0.11264  Biso   1.000  O
  C1       1.0000 0.52391  0.10912  0.93467  Biso   1.000  C
  O2       1.0000 0.79518  0.44889  0.11264  Biso   1.000  O
  C2       1.0000 0.89088  0.41479  0.93467  Biso   1.000  C
  O3       1.0000 0.55111  0.34629  0.11264  Biso   1.000  O
  C3       1.0000 0.58521  0.47609  0.93467  Biso   1.000  C
  O4       1.0000 0.79518  0.34629  0.88736  Biso   1.000  O
  C4       1.0000 0.89088  0.47609  0.06533  Biso   1.000  C
  O5       1.0000 0.55111  0.20482  0.88736  Biso   1.000  O
  C5       1.0000 0.58521  0.10912  0.06533  Biso   1.000  C
  O6       1.0000 0.65371  0.44889  0.88736  Biso   1.000  O
  C6       1.0000 0.52391  0.41479  0.06533  Biso   1.000  C
  O7       1.0000 0.34629  0.79518  0.88736  Biso   1.000  O
  C7       1.0000 0.47609  0.89088  0.06533  Biso   1.000  C
  O8       1.0000 0.20482  0.55111  0.88736  Biso   1.000  O
  C8       1.0000 0.10912  0.58521  0.06533  Biso   1.000  C
  O9       1.0000 0.44889  0.65371  0.88736  Biso   1.000  O
  C9       1.0000 0.41479  0.52391  0.06533  Biso   1.000  C
  O10      1.0000 0.20482  0.65371  0.11264  Biso   1.000  O
  C10      1.0000 0.10912  0.52391  0.93467  Biso   1.000  C
  O11      1.0000 0.44889  0.79518  0.11264  Biso   1.000  O
  C11      1.0000 0.41479  0.89088  0.93467  Biso   1.000  C
  O12      1.0000 0.34629  0.55111  0.11264  Biso   1.000  O
  C12      1.0000 0.47609  0.58521  0.93467  Biso   1.000  C
  Al1      1.0000 0.66667  0.33333  0.00000  Biso   1.000  Al
  Al2      1.0000 0.33333  0.66667  0.00000  Biso   1.000  Al
  C13      1.0000 0.54563  0.00000  0.13808  Biso   1.000  C
  C14      1.0000 0.00000  0.54563  0.13808  Biso   1.000  C
  C15      1.0000 0.45437  0.45437  0.13808  Biso   1.000  C
  C16      1.0000 0.00000  0.45437  0.86192  Biso   1.000  C
  C17      1.0000 0.45437  0.00000  0.86192  Biso   1.000  C
  C18      1.0000 0.54563  0.54563  0.86192  Biso   1.000  C
