data_image0
_cell_length_a       13.3677
_cell_length_b       16.8635
_cell_length_c       10.7622
_cell_angle_alpha    90
_cell_angle_beta     90
_cell_angle_gamma    90

_symmetry_space_group_name_H-M    "P 1"
_symmetry_int_tables_number       1

loop_
  _symmetry_equiv_pos_as_xyz
  'x, y, z'

loop_
  _atom_site_label
  _atom_site_occupancy
  _atom_site_fract_x
  _atom_site_fract_y
  _atom_site_fract_z
  _atom_site_thermal_displace_type
  _atom_site_B_iso_or_equiv
  _atom_site_type_symbol
  C1       1.0000 0.58940  0.50750  0.06320  Biso   1.000  C
  H1       1.0000 0.64930  0.51310  0.10620  Biso   1.000  H
  C2       1.0000 0.53420  0.43860  0.07680  Biso   1.000  C
  C3       1.0000 0.44390  0.43050  0.01540  Biso   1.000  C
  C4       1.0000 0.37810  0.35880  0.03000  Biso   1.000  C
  O1       1.0000 0.57200  0.37980  0.14950  Biso   1.000  O
  O2       1.0000 0.39530  0.31080  0.12010  Biso   1.000  O
  O3       1.0000 0.30750  0.34760  0.95460  Biso   1.000  O
  C5       1.0000 0.53910  0.14710  0.20850  Biso   1.000  C
  C6       1.0000 0.58090  0.07750  0.16580  Biso   1.000  C
  H2       1.0000 0.63480  0.07730  0.11130  Biso   1.000  H
  C7       1.0000 0.53730  0.00710  0.20920  Biso   1.000  C
  H3       1.0000 0.56130  0.95890  0.17990  Biso   1.000  H
  O4       1.0000 0.57180  0.21840  0.17520  Biso   1.000  O
  C8       1.0000 0.41060  0.50750  0.43680  Biso   1.000  C
  H4       1.0000 0.35070  0.51310  0.39380  Biso   1.000  H
  C9       1.0000 0.46580  0.43860  0.42320  Biso   1.000  C
  C10      1.0000 0.55610  0.43050  0.48460  Biso   1.000  C
  C11      1.0000 0.62190  0.35880  0.47000  Biso   1.000  C
  O5       1.0000 0.42800  0.37980  0.35050  Biso   1.000  O
  O6       1.0000 0.60470  0.31080  0.37990  Biso   1.000  O
  O7       1.0000 0.69250  0.34760  0.54540  Biso   1.000  O
  C12      1.0000 0.46090  0.14710  0.29150  Biso   1.000  C
  C13      1.0000 0.41910  0.07750  0.33420  Biso   1.000  C
  H5       1.0000 0.36520  0.07730  0.38870  Biso   1.000  H
  C14      1.0000 0.46270  0.00710  0.29080  Biso   1.000  C
  H6       1.0000 0.43870  0.95890  0.32010  Biso   1.000  H
  O8       1.0000 0.42820  0.21840  0.32480  Biso   1.000  O
  C15      1.0000 0.41060  0.49250  0.93680  Biso   1.000  C
  H7       1.0000 0.35070  0.48690  0.89380  Biso   1.000  H
  C16      1.0000 0.46580  0.56140  0.92320  Biso   1.000  C
  C17      1.0000 0.55610  0.56950  0.98460  Biso   1.000  C
  C18      1.0000 0.62190  0.64120  0.97000  Biso   1.000  C
  O9       1.0000 0.42800  0.62020  0.85050  Biso   1.000  O
  O10      1.0000 0.60470  0.68920  0.87990  Biso   1.000  O
  O11      1.0000 0.69250  0.65240  0.04540  Biso   1.000  O
  C19      1.0000 0.46090  0.85290  0.79150  Biso   1.000  C
  C20      1.0000 0.41910  0.92250  0.83420  Biso   1.000  C
  H8       1.0000 0.36520  0.92270  0.88870  Biso   1.000  H
  C21      1.0000 0.46270  0.99290  0.79080  Biso   1.000  C
  H9       1.0000 0.43870  0.04110  0.82010  Biso   1.000  H
  O12      1.0000 0.42820  0.78160  0.82480  Biso   1.000  O
  C22      1.0000 0.58940  0.49250  0.56320  Biso   1.000  C
  H10      1.0000 0.64930  0.48690  0.60620  Biso   1.000  H
  C23      1.0000 0.53420  0.56140  0.57680  Biso   1.000  C
  C24      1.0000 0.44390  0.56950  0.51540  Biso   1.000  C
  C25      1.0000 0.37810  0.64120  0.53000  Biso   1.000  C
  O13      1.0000 0.57200  0.62020  0.64950  Biso   1.000  O
  O14      1.0000 0.39530  0.68920  0.62010  Biso   1.000  O
  O15      1.0000 0.30750  0.65240  0.45460  Biso   1.000  O
  C26      1.0000 0.53910  0.85290  0.70850  Biso   1.000  C
  C27      1.0000 0.58090  0.92250  0.66580  Biso   1.000  C
  H11      1.0000 0.63480  0.92270  0.61130  Biso   1.000  H
  C28      1.0000 0.53730  0.99290  0.70920  Biso   1.000  C
  H12      1.0000 0.56130  0.04110  0.67990  Biso   1.000  H
  O16      1.0000 0.57180  0.78160  0.67520  Biso   1.000  O
  Ti1      1.0000 0.50000  0.30538  0.25000  Biso   1.000  Ti
  Ti2      1.0000 0.50000  0.69462  0.75000  Biso   1.000  Ti
  C29      1.0000 0.91060  0.99250  0.56320  Biso   1.000  C
  H13      1.0000 0.85070  0.98690  0.60620  Biso   1.000  H
  C30      1.0000 0.96580  0.06140  0.57680  Biso   1.000  C
  C31      1.0000 0.05610  0.06950  0.51540  Biso   1.000  C
  C32      1.0000 0.12190  0.14120  0.53000  Biso   1.000  C
  O17      1.0000 0.92800  0.12020  0.64950  Biso   1.000  O
  O18      1.0000 0.10470  0.18920  0.62010  Biso   1.000  O
  O19      1.0000 0.19250  0.15240  0.45460  Biso   1.000  O
  C33      1.0000 0.96090  0.35290  0.70850  Biso   1.000  C
  C34      1.0000 0.91910  0.42250  0.66580  Biso   1.000  C
  H14      1.0000 0.86520  0.42270  0.61130  Biso   1.000  H
  C35      1.0000 0.96270  0.49290  0.70920  Biso   1.000  C
  H15      1.0000 0.93870  0.54110  0.67990  Biso   1.000  H
  O20      1.0000 0.92820  0.28160  0.67520  Biso   1.000  O
  C36      1.0000 0.08940  0.99250  0.93680  Biso   1.000  C
  H16      1.0000 0.14930  0.98690  0.89380  Biso   1.000  H
  C37      1.0000 0.03420  0.06140  0.92320  Biso   1.000  C
  C38      1.0000 0.94390  0.06950  0.98460  Biso   1.000  C
  C39      1.0000 0.87810  0.14120  0.97000  Biso   1.000  C
  O21      1.0000 0.07200  0.12020  0.85050  Biso   1.000  O
  O22      1.0000 0.89530  0.18920  0.87990  Biso   1.000  O
  O23      1.0000 0.80750  0.15240  0.04540  Biso   1.000  O
  C40      1.0000 0.03910  0.35290  0.79150  Biso   1.000  C
  C41      1.0000 0.08090  0.42250  0.83420  Biso   1.000  C
  H17      1.0000 0.13480  0.42270  0.88870  Biso   1.000  H
  C42      1.0000 0.03730  0.49290  0.79080  Biso   1.000  C
  H18      1.0000 0.06130  0.54110  0.82010  Biso   1.000  H
  O24      1.0000 0.07180  0.28160  0.82480  Biso   1.000  O
  C43      1.0000 0.08940  0.00750  0.43680  Biso   1.000  C
  H19      1.0000 0.14930  0.01310  0.39380  Biso   1.000  H
  C44      1.0000 0.03420  0.93860  0.42320  Biso   1.000  C
  C45      1.0000 0.94390  0.93050  0.48460  Biso   1.000  C
  C46      1.0000 0.87810  0.85880  0.47000  Biso   1.000  C
  O25      1.0000 0.07200  0.87980  0.35050  Biso   1.000  O
  O26      1.0000 0.89530  0.81080  0.37990  Biso   1.000  O
  O27      1.0000 0.80750  0.84760  0.54540  Biso   1.000  O
  C47      1.0000 0.03910  0.64710  0.29150  Biso   1.000  C
  C48      1.0000 0.08090  0.57750  0.33420  Biso   1.000  C
  H20      1.0000 0.13480  0.57730  0.38870  Biso   1.000  H
  C49      1.0000 0.03730  0.50710  0.29080  Biso   1.000  C
  H21      1.0000 0.06130  0.45890  0.32010  Biso   1.000  H
  O28      1.0000 0.07180  0.71840  0.32480  Biso   1.000  O
  C50      1.0000 0.91060  0.00750  0.06320  Biso   1.000  C
  H22      1.0000 0.85070  0.01310  0.10620  Biso   1.000  H
  C51      1.0000 0.96580  0.93860  0.07680  Biso   1.000  C
  C52      1.0000 0.05610  0.93050  0.01540  Biso   1.000  C
  C53      1.0000 0.12190  0.85880  0.03000  Biso   1.000  C
  O29      1.0000 0.92800  0.87980  0.14950  Biso   1.000  O
  O30      1.0000 0.10470  0.81080  0.12010  Biso   1.000  O
  O31      1.0000 0.19250  0.84760  0.95460  Biso   1.000  O
  C54      1.0000 0.96090  0.64710  0.20850  Biso   1.000  C
  C55      1.0000 0.91910  0.57750  0.16580  Biso   1.000  C
  H23      1.0000 0.86520  0.57730  0.11130  Biso   1.000  H
  C56      1.0000 0.96270  0.50710  0.20920  Biso   1.000  C
  H24      1.0000 0.93870  0.45890  0.17990  Biso   1.000  H
  O32      1.0000 0.92820  0.71840  0.17520  Biso   1.000  O
  Ti3      1.0000 0.00000  0.19462  0.75000  Biso   1.000  Ti
  Ti4      1.0000 0.00000  0.80538  0.25000  Biso   1.000  Ti
