data_image0
_cell_length_a       12.638
_cell_length_b       23.853
_cell_length_c       16.772
_cell_angle_alpha    90
_cell_angle_beta     95.94
_cell_angle_gamma    90

_symmetry_space_group_name_H-M    "P 1"
_symmetry_int_tables_number       1

loop_
  _symmetry_equiv_pos_as_xyz
  'x, y, z'

loop_
  _atom_site_label
  _atom_site_occupancy
  _atom_site_fract_x
  _atom_site_fract_y
  _atom_site_fract_z
  _atom_site_thermal_displace_type
  _atom_site_B_iso_or_equiv
  _atom_site_type_symbol
  Ru1      1.0000 0.48986  0.46171  0.77804  Biso   1.000  Ru
  N1       1.0000 0.41260  0.53680  0.74880  Biso   1.000  N
  N2       1.0000 0.61430  0.51670  0.78800  Biso   1.000  N
  N3       1.0000 0.47380  0.47070  0.89770  Biso   1.000  N
  N4       1.0000 0.57980  0.39430  0.82350  Biso   1.000  N
  N5       1.0000 0.36270  0.40790  0.75550  Biso   1.000  N
  N6       1.0000 0.49610  0.44760  0.65730  Biso   1.000  N
  N7       1.0000 0.92850  0.60640  0.63450  Biso   1.000  N
  N8       1.0000 0.12110  0.47970  0.82800  Biso   1.000  N
  C1       1.0000 0.25950  0.59380  0.71480  Biso   1.000  C
  C2       1.0000 0.98570  0.56380  0.61320  Biso   1.000  C
  H1       1.0000 0.95130  0.53570  0.57970  Biso   1.000  H
  C3       1.0000 0.97690  0.64500  0.68110  Biso   1.000  C
  H2       1.0000 0.93570  0.67580  0.69600  Biso   1.000  H
  C4       1.0000 0.32130  0.64070  0.72930  Biso   1.000  C
  H3       1.0000 0.28920  0.67670  0.72480  Biso   1.000  H
  C5       1.0000 0.08300  0.64390  0.70990  Biso   1.000  C
  H4       1.0000 0.11360  0.67290  0.74360  Biso   1.000  H
  C6       1.0000 0.09300  0.55780  0.63710  Biso   1.000  C
  H5       1.0000 0.13140  0.52670  0.61960  Biso   1.000  H
  C7       1.0000 0.14450  0.59870  0.68800  Biso   1.000  C
  C8       1.0000 0.30770  0.54290  0.72660  Biso   1.000  C
  H6       1.0000 0.26520  0.51010  0.71880  Biso   1.000  H
  C9       1.0000 0.43070  0.63620  0.75050  Biso   1.000  C
  H7       1.0000 0.47400  0.66870  0.75920  Biso   1.000  H
  C10      1.0000 0.47430  0.58290  0.75840  Biso   1.000  C
  C11      1.0000 0.58730  0.57220  0.77710  Biso   1.000  C
  C12      1.0000 0.66650  0.61380  0.78060  Biso   1.000  C
  H8       1.0000 0.64790  0.65230  0.77500  Biso   1.000  H
  C13      1.0000 0.77220  0.59750  0.79210  Biso   1.000  C
  H9       1.0000 0.82630  0.62520  0.79320  Biso   1.000  H
  C14      1.0000 0.71680  0.50290  0.80000  Biso   1.000  C
  H10      1.0000 0.73460  0.46440  0.80760  Biso   1.000  H
  C15      1.0000 0.80060  0.54230  0.80220  Biso   1.000  C
  C16      1.0000 0.91180  0.52140  0.81110  Biso   1.000  C
  C17      1.0000 0.99190  0.54890  0.85520  Biso   1.000  C
  H11      1.0000 0.97800  0.58320  0.88110  Biso   1.000  H
  C18      1.0000 0.09510  0.52650  0.86230  Biso   1.000  C
  H12      1.0000 0.14950  0.54640  0.89390  Biso   1.000  H
  C19      1.0000 0.04210  0.45330  0.78300  Biso   1.000  C
  H13      1.0000 0.05880  0.41960  0.75680  Biso   1.000  H
  C20      1.0000 0.93810  0.47200  0.77240  Biso   1.000  C
  H14      1.0000 0.88550  0.45180  0.73950  Biso   1.000  H
  C21      1.0000 0.41900  0.50810  0.93500  Biso   1.000  C
  H15      1.0000 0.38100  0.53650  0.90420  Biso   1.000  H
  C22      1.0000 0.41500  0.50720  0.01700  Biso   1.000  C
  H16      1.0000 0.37290  0.53420  0.04090  Biso   1.000  H
  C23      1.0000 0.46920  0.46920  0.06300  Biso   1.000  C
  H17      1.0000 0.46660  0.46990  0.11940  Biso   1.000  H
  C24      1.0000 0.52970  0.42850  0.02900  Biso   1.000  C
  C25      1.0000 0.52850  0.43150  0.94510  Biso   1.000  C
  C26      1.0000 0.59520  0.38830  0.07240  Biso   1.000  C
  H18      1.0000 0.60160  0.38870  0.12940  Biso   1.000  H
  C27      1.0000 0.64800  0.34990  0.03400  Biso   1.000  C
  H19      1.0000 0.68790  0.32220  0.06470  Biso   1.000  H
  C28      1.0000 0.58650  0.39070  0.90460  Biso   1.000  C
  C29      1.0000 0.64710  0.34890  0.94960  Biso   1.000  C
  C30      1.0000 0.70210  0.31050  0.90590  Biso   1.000  C
  H20      1.0000 0.74470  0.28210  0.93260  Biso   1.000  H
  C31      1.0000 0.69340  0.31460  0.82490  Biso   1.000  C
  H21      1.0000 0.73110  0.28870  0.79530  Biso   1.000  H
  C32      1.0000 0.63090  0.35550  0.78360  Biso   1.000  C
  H22      1.0000 0.62420  0.35600  0.72670  Biso   1.000  H
  C33      1.0000 0.30460  0.38220  0.80730  Biso   1.000  C
  H23      1.0000 0.32050  0.38900  0.86300  Biso   1.000  H
  C34      1.0000 0.22060  0.34530  0.78170  Biso   1.000  C
  H24      1.0000 0.18300  0.32660  0.82010  Biso   1.000  H
  C35      1.0000 0.19350  0.33650  0.70280  Biso   1.000  C
  H25      1.0000 0.13440  0.31330  0.68560  Biso   1.000  H
  C36      1.0000 0.25320  0.36180  0.64590  Biso   1.000  C
  C37      1.0000 0.33940  0.39580  0.67610  Biso   1.000  C
  C38      1.0000 0.40990  0.41760  0.62240  Biso   1.000  C
  C39      1.0000 0.39200  0.40700  0.53940  Biso   1.000  C
  C40      1.0000 0.29810  0.37560  0.51010  Biso   1.000  C
  H26      1.0000 0.28240  0.36950  0.45410  Biso   1.000  H
  C41      1.0000 0.23240  0.35480  0.56140  Biso   1.000  C
  H27      1.0000 0.17050  0.33490  0.54050  Biso   1.000  H
  C42      1.0000 0.46930  0.42790  0.49220  Biso   1.000  C
  H28      1.0000 0.46220  0.42150  0.43600  Biso   1.000  H
  C43      1.0000 0.55400  0.45730  0.52720  Biso   1.000  C
  H29      1.0000 0.60540  0.47160  0.49510  Biso   1.000  H
  C44      1.0000 0.56600  0.46660  0.60920  Biso   1.000  C
  H30      1.0000 0.62590  0.48730  0.63200  Biso   1.000  H
  Ru2      1.0000 0.05298  0.13454  0.71825  Biso   1.000  Ru
  N9       1.0000 0.96300  0.16210  0.61540  Biso   1.000  N
  N10      1.0000 0.16600  0.17620  0.66010  Biso   1.000  N
  N11      1.0000 0.02900  0.20250  0.79140  Biso   1.000  N
  N12      1.0000 0.14770  0.11160  0.82110  Biso   1.000  N
  N13      1.0000 0.93310  0.08710  0.75810  Biso   1.000  N
  N14      1.0000 0.07460  0.06020  0.65660  Biso   1.000  N
  N15      1.0000 0.47330  0.13680  0.46180  Biso   1.000  N
  N16      1.0000 0.67790  0.20030  0.71630  Biso   1.000  N
  C45      1.0000 0.64110  0.11120  0.53210  Biso   1.000  C
  H31      1.0000 0.68060  0.08500  0.56600  Biso   1.000  H
  C46      1.0000 0.53460  0.10300  0.50980  Biso   1.000  C
  H32      1.0000 0.50230  0.07080  0.53010  Biso   1.000  H
  C47      1.0000 0.52140  0.18290  0.43480  Biso   1.000  C
  H33      1.0000 0.48010  0.20780  0.40000  Biso   1.000  H
  C48      1.0000 0.62570  0.19530  0.45500  Biso   1.000  C
  H34      1.0000 0.65460  0.22890  0.43590  Biso   1.000  H
  C49      1.0000 0.69060  0.15920  0.50350  Biso   1.000  C
  C50      1.0000 0.80410  0.16950  0.52350  Biso   1.000  C
  C51      1.0000 0.85840  0.15410  0.59720  Biso   1.000  C
  H35      1.0000 0.81920  0.13710  0.63610  Biso   1.000  H
  C52      1.0000 0.86350  0.19890  0.46920  Biso   1.000  C
  H36      1.0000 0.82910  0.21260  0.42000  Biso   1.000  H
  C53      1.0000 0.96960  0.20730  0.48800  Biso   1.000  C
  H37      1.0000 0.00960  0.22620  0.45120  Biso   1.000  H
  C54      1.0000 0.01980  0.18840  0.56090  Biso   1.000  C
  C55      1.0000 0.13300  0.19330  0.58460  Biso   1.000  C
  C56      1.0000 0.20380  0.21460  0.53360  Biso   1.000  C
  H38      1.0000 0.17870  0.22650  0.48100  Biso   1.000  H
  C57      1.0000 0.31060  0.21820  0.56040  Biso   1.000  C
  H39      1.0000 0.35980  0.23160  0.52570  Biso   1.000  H
  C58      1.0000 0.34610  0.20220  0.63890  Biso   1.000  C
  C59      1.0000 0.26950  0.18110  0.68700  Biso   1.000  C
  H40      1.0000 0.29210  0.16990  0.74040  Biso   1.000  H
  C60      1.0000 0.45840  0.20440  0.66910  Biso   1.000  C
  C61      1.0000 0.52780  0.23900  0.63240  Biso   1.000  C
  H41      1.0000 0.50250  0.26440  0.59120  Biso   1.000  H
  C62      1.0000 0.63740  0.23480  0.65920  Biso   1.000  C
  H42      1.0000 0.68530  0.25830  0.63450  Biso   1.000  H
  C63      1.0000 0.60910  0.16960  0.75050  Biso   1.000  C
  H43      1.0000 0.63520  0.14480  0.79240  Biso   1.000  H
  C64      1.0000 0.50110  0.17140  0.72860  Biso   1.000  C
  H44      1.0000 0.45550  0.14860  0.75640  Biso   1.000  H
  C65      1.0000 0.97220  0.24820  0.77430  Biso   1.000  C
  H45      1.0000 0.93810  0.25270  0.72150  Biso   1.000  H
  C66      1.0000 0.96020  0.29040  0.83130  Biso   1.000  C
  H46      1.0000 0.92100  0.32330  0.81600  Biso   1.000  H
  C67      1.0000 0.00500  0.28410  0.90910  Biso   1.000  C
  H47      1.0000 0.99490  0.31170  0.94850  Biso   1.000  H
  C68      1.0000 0.06660  0.23550  0.92910  Biso   1.000  C
  C69      1.0000 0.07750  0.19570  0.86750  Biso   1.000  C
  C70      1.0000 0.13970  0.14720  0.88350  Biso   1.000  C
  C71      1.0000 0.19330  0.13870  0.96080  Biso   1.000  C
  C72      1.0000 0.17930  0.17910  0.02230  Biso   1.000  C
  H48      1.0000 0.21520  0.17380  0.07440  Biso   1.000  H
  C73      1.0000 0.11610  0.22460  0.00780  Biso   1.000  C
  H49      1.0000 0.10470  0.24940  0.05040  Biso   1.000  H
  C74      1.0000 0.25700  0.08990  0.97170  Biso   1.000  C
  H50      1.0000 0.29210  0.08120  0.02310  Biso   1.000  H
  C75      1.0000 0.26760  0.05530  0.90790  Biso   1.000  C
  H51      1.0000 0.31340  0.02360  0.91390  Biso   1.000  H
  C76      1.0000 0.21000  0.06690  0.83310  Biso   1.000  C
  H52      1.0000 0.21600  0.04190  0.78970  Biso   1.000  H
  C77      1.0000 0.86540  0.10020  0.81080  Biso   1.000  C
  H53      1.0000 0.87090  0.13610  0.83540  Biso   1.000  H
  C78      1.0000 0.78530  0.06300  0.83180  Biso   1.000  C
  H54      1.0000 0.74030  0.07360  0.87130  Biso   1.000  H
  C79      1.0000 0.77300  0.01260  0.79570  Biso   1.000  C
  H55      1.0000 0.71610  0.98860  0.80640  Biso   1.000  H
  C80      1.0000 0.84650  0.99580  0.74110  Biso   1.000  C
  C81      1.0000 0.92500  0.03420  0.72380  Biso   1.000  C
  C82      1.0000 0.99830  0.02060  0.67050  Biso   1.000  C
  C83      1.0000 0.99750  0.96760  0.63390  Biso   1.000  C
  C84      1.0000 0.91550  0.92840  0.65300  Biso   1.000  C
  H56      1.0000 0.91280  0.89210  0.62960  Biso   1.000  H
  C85      1.0000 0.84400  0.94260  0.70270  Biso   1.000  C
  H57      1.0000 0.79010  0.91660  0.71270  Biso   1.000  H
  C86      1.0000 0.07480  0.95600  0.58260  Biso   1.000  C
  H58      1.0000 0.07660  0.92050  0.55710  Biso   1.000  H
  C87      1.0000 0.14770  0.99610  0.56930  Biso   1.000  C
  H59      1.0000 0.20000  0.98890  0.53380  Biso   1.000  H
  C88      1.0000 0.14550  0.04850  0.60830  Biso   1.000  C
  H60      1.0000 0.19740  0.07590  0.59900  Biso   1.000  H
  Ru3      1.0000 0.51014  0.96171  0.22196  Biso   1.000  Ru
  N17      1.0000 0.58740  0.03680  0.25120  Biso   1.000  N
  N18      1.0000 0.38570  0.01670  0.21200  Biso   1.000  N
  N19      1.0000 0.52620  0.97070  0.10230  Biso   1.000  N
  N20      1.0000 0.42020  0.89430  0.17650  Biso   1.000  N
  N21      1.0000 0.63730  0.90790  0.24450  Biso   1.000  N
  N22      1.0000 0.50390  0.94760  0.34270  Biso   1.000  N
  N23      1.0000 0.07150  0.10640  0.36550  Biso   1.000  N
  N24      1.0000 0.87890  0.97970  0.17200  Biso   1.000  N
  C89      1.0000 0.74050  0.09380  0.28520  Biso   1.000  C
  C90      1.0000 0.01430  0.06380  0.38680  Biso   1.000  C
  H61      1.0000 0.04870  0.03570  0.42030  Biso   1.000  H
  C91      1.0000 0.02310  0.14500  0.31890  Biso   1.000  C
  H62      1.0000 0.06430  0.17580  0.30400  Biso   1.000  H
  C92      1.0000 0.67870  0.14070  0.27070  Biso   1.000  C
  H63      1.0000 0.71080  0.17670  0.27520  Biso   1.000  H
  C93      1.0000 0.91700  0.14390  0.29010  Biso   1.000  C
  H64      1.0000 0.88640  0.17290  0.25640  Biso   1.000  H
  C94      1.0000 0.90700  0.05780  0.36290  Biso   1.000  C
  H65      1.0000 0.86860  0.02670  0.38040  Biso   1.000  H
  C95      1.0000 0.85550  0.09870  0.31200  Biso   1.000  C
  C96      1.0000 0.69230  0.04290  0.27340  Biso   1.000  C
  H66      1.0000 0.73480  0.01010  0.28120  Biso   1.000  H
  C97      1.0000 0.56930  0.13620  0.24950  Biso   1.000  C
  H67      1.0000 0.52600  0.16870  0.24080  Biso   1.000  H
  C98      1.0000 0.52570  0.08290  0.24160  Biso   1.000  C
  C99      1.0000 0.41270  0.07220  0.22290  Biso   1.000  C
  C100     1.0000 0.33350  0.11380  0.21940  Biso   1.000  C
  H68      1.0000 0.35210  0.15230  0.22500  Biso   1.000  H
  C101     1.0000 0.22780  0.09750  0.20790  Biso   1.000  C
  H69      1.0000 0.17370  0.12520  0.20680  Biso   1.000  H
  C102     1.0000 0.28320  0.00290  0.20000  Biso   1.000  C
  H70      1.0000 0.26540  0.96440  0.19240  Biso   1.000  H
  C103     1.0000 0.19940  0.04230  0.19780  Biso   1.000  C
  C104     1.0000 0.08820  0.02140  0.18890  Biso   1.000  C
  C105     1.0000 0.00810  0.04890  0.14480  Biso   1.000  C
  H71      1.0000 0.02200  0.08320  0.11890  Biso   1.000  H
  C106     1.0000 0.90490  0.02650  0.13770  Biso   1.000  C
  H72      1.0000 0.85050  0.04640  0.10610  Biso   1.000  H
  C107     1.0000 0.95790  0.95330  0.21700  Biso   1.000  C
  H73      1.0000 0.94120  0.91960  0.24320  Biso   1.000  H
  C108     1.0000 0.06190  0.97200  0.22760  Biso   1.000  C
  H74      1.0000 0.11450  0.95180  0.26050  Biso   1.000  H
  C109     1.0000 0.58100  0.00810  0.06500  Biso   1.000  C
  H75      1.0000 0.61900  0.03650  0.09580  Biso   1.000  H
  C110     1.0000 0.58500  0.00720  0.98300  Biso   1.000  C
  H76      1.0000 0.62710  0.03420  0.95910  Biso   1.000  H
  C111     1.0000 0.53080  0.96920  0.93700  Biso   1.000  C
  H77      1.0000 0.53340  0.96990  0.88060  Biso   1.000  H
  C112     1.0000 0.47030  0.92850  0.97100  Biso   1.000  C
  C113     1.0000 0.47150  0.93150  0.05490  Biso   1.000  C
  C114     1.0000 0.40480  0.88830  0.92760  Biso   1.000  C
  H78      1.0000 0.39840  0.88870  0.87060  Biso   1.000  H
  C115     1.0000 0.35200  0.84990  0.96600  Biso   1.000  C
  H79      1.0000 0.31210  0.82220  0.93530  Biso   1.000  H
  C116     1.0000 0.41350  0.89070  0.09540  Biso   1.000  C
  C117     1.0000 0.35290  0.84890  0.05040  Biso   1.000  C
  C118     1.0000 0.29790  0.81050  0.09410  Biso   1.000  C
  H80      1.0000 0.25530  0.78210  0.06740  Biso   1.000  H
  C119     1.0000 0.30660  0.81460  0.17510  Biso   1.000  C
  H81      1.0000 0.26890  0.78870  0.20470  Biso   1.000  H
  C120     1.0000 0.36910  0.85550  0.21640  Biso   1.000  C
  H82      1.0000 0.37580  0.85600  0.27330  Biso   1.000  H
  C121     1.0000 0.69540  0.88220  0.19270  Biso   1.000  C
  H83      1.0000 0.67950  0.88900  0.13700  Biso   1.000  H
  C122     1.0000 0.77940  0.84530  0.21830  Biso   1.000  C
  H84      1.0000 0.81700  0.82660  0.17990  Biso   1.000  H
  C123     1.0000 0.80650  0.83650  0.29720  Biso   1.000  C
  H85      1.0000 0.86560  0.81330  0.31440  Biso   1.000  H
  C124     1.0000 0.74680  0.86180  0.35410  Biso   1.000  C
  C125     1.0000 0.66060  0.89580  0.32390  Biso   1.000  C
  C126     1.0000 0.59010  0.91760  0.37760  Biso   1.000  C
  C127     1.0000 0.60800  0.90700  0.46060  Biso   1.000  C
  C128     1.0000 0.70190  0.87560  0.48990  Biso   1.000  C
  H86      1.0000 0.71760  0.86950  0.54590  Biso   1.000  H
  C129     1.0000 0.76760  0.85480  0.43860  Biso   1.000  C
  H87      1.0000 0.82950  0.83490  0.45950  Biso   1.000  H
  C130     1.0000 0.53070  0.92790  0.50780  Biso   1.000  C
  H88      1.0000 0.53780  0.92150  0.56400  Biso   1.000  H
  C131     1.0000 0.44600  0.95730  0.47280  Biso   1.000  C
  H89      1.0000 0.39460  0.97160  0.50490  Biso   1.000  H
  C132     1.0000 0.43400  0.96660  0.39080  Biso   1.000  C
  H90      1.0000 0.37410  0.98730  0.36800  Biso   1.000  H
  Ru4      1.0000 0.94702  0.63454  0.28175  Biso   1.000  Ru
  N25      1.0000 0.03700  0.66210  0.38460  Biso   1.000  N
  N26      1.0000 0.83400  0.67620  0.33990  Biso   1.000  N
  N27      1.0000 0.97100  0.70250  0.20860  Biso   1.000  N
  N28      1.0000 0.85230  0.61160  0.17890  Biso   1.000  N
  N29      1.0000 0.06690  0.58710  0.24190  Biso   1.000  N
  N30      1.0000 0.92540  0.56020  0.34340  Biso   1.000  N
  N31      1.0000 0.52670  0.63680  0.53820  Biso   1.000  N
  N32      1.0000 0.32210  0.70030  0.28370  Biso   1.000  N
  C133     1.0000 0.35890  0.61120  0.46790  Biso   1.000  C
  H91      1.0000 0.31940  0.58500  0.43400  Biso   1.000  H
  C134     1.0000 0.46540  0.60300  0.49020  Biso   1.000  C
  H92      1.0000 0.49770  0.57080  0.46990  Biso   1.000  H
  C135     1.0000 0.47860  0.68290  0.56520  Biso   1.000  C
  H93      1.0000 0.51990  0.70780  0.60000  Biso   1.000  H
  C136     1.0000 0.37430  0.69530  0.54500  Biso   1.000  C
  H94      1.0000 0.34540  0.72890  0.56410  Biso   1.000  H
  C137     1.0000 0.30940  0.65920  0.49650  Biso   1.000  C
  C138     1.0000 0.19590  0.66950  0.47650  Biso   1.000  C
  C139     1.0000 0.14160  0.65410  0.40280  Biso   1.000  C
  H95      1.0000 0.18080  0.63710  0.36390  Biso   1.000  H
  C140     1.0000 0.13650  0.69890  0.53080  Biso   1.000  C
  H96      1.0000 0.17090  0.71260  0.58000  Biso   1.000  H
  C141     1.0000 0.03040  0.70730  0.51200  Biso   1.000  C
  H97      1.0000 0.99040  0.72620  0.54880  Biso   1.000  H
  C142     1.0000 0.98020  0.68840  0.43910  Biso   1.000  C
  C143     1.0000 0.86700  0.69330  0.41540  Biso   1.000  C
  C144     1.0000 0.79620  0.71460  0.46640  Biso   1.000  C
  H98      1.0000 0.82130  0.72650  0.51900  Biso   1.000  H
  C145     1.0000 0.68940  0.71820  0.43960  Biso   1.000  C
  H99      1.0000 0.64020  0.73160  0.47430  Biso   1.000  H
  C146     1.0000 0.65390  0.70220  0.36110  Biso   1.000  C
  C147     1.0000 0.73050  0.68110  0.31300  Biso   1.000  C
  H100     1.0000 0.70790  0.66990  0.25960  Biso   1.000  H
  C148     1.0000 0.54160  0.70440  0.33090  Biso   1.000  C
  C149     1.0000 0.47220  0.73900  0.36760  Biso   1.000  C
  H101     1.0000 0.49750  0.76440  0.40880  Biso   1.000  H
  C150     1.0000 0.36260  0.73480  0.34080  Biso   1.000  C
  H102     1.0000 0.31470  0.75830  0.36550  Biso   1.000  H
  C151     1.0000 0.39090  0.66960  0.24950  Biso   1.000  C
  H103     1.0000 0.36480  0.64480  0.20760  Biso   1.000  H
  C152     1.0000 0.49890  0.67140  0.27140  Biso   1.000  C
  H104     1.0000 0.54450  0.64860  0.24360  Biso   1.000  H
  C153     1.0000 0.02780  0.74820  0.22570  Biso   1.000  C
  H105     1.0000 0.06190  0.75270  0.27850  Biso   1.000  H
  C154     1.0000 0.03980  0.79040  0.16870  Biso   1.000  C
  H106     1.0000 0.07900  0.82330  0.18400  Biso   1.000  H
  C155     1.0000 0.99500  0.78410  0.09090  Biso   1.000  C
  H107     1.0000 0.00510  0.81170  0.05150  Biso   1.000  H
  C156     1.0000 0.93340  0.73550  0.07090  Biso   1.000  C
  C157     1.0000 0.92250  0.69570  0.13250  Biso   1.000  C
  C158     1.0000 0.86030  0.64720  0.11650  Biso   1.000  C
  C159     1.0000 0.80670  0.63870  0.03920  Biso   1.000  C
  C160     1.0000 0.82070  0.67910  0.97770  Biso   1.000  C
  H108     1.0000 0.78480  0.67380  0.92560  Biso   1.000  H
  C161     1.0000 0.88390  0.72460  0.99220  Biso   1.000  C
  H109     1.0000 0.89530  0.74940  0.94960  Biso   1.000  H
  C162     1.0000 0.74300  0.58990  0.02830  Biso   1.000  C
  H110     1.0000 0.70790  0.58120  0.97690  Biso   1.000  H
  C163     1.0000 0.73240  0.55530  0.09210  Biso   1.000  C
  H111     1.0000 0.68660  0.52360  0.08610  Biso   1.000  H
  C164     1.0000 0.79000  0.56690  0.16690  Biso   1.000  C
  H112     1.0000 0.78400  0.54190  0.21030  Biso   1.000  H
  C165     1.0000 0.13460  0.60020  0.18920  Biso   1.000  C
  H113     1.0000 0.12910  0.63610  0.16460  Biso   1.000  H
  C166     1.0000 0.21470  0.56300  0.16820  Biso   1.000  C
  H114     1.0000 0.25970  0.57360  0.12870  Biso   1.000  H
  C167     1.0000 0.22700  0.51260  0.20430  Biso   1.000  C
  H115     1.0000 0.28390  0.48860  0.19360  Biso   1.000  H
  C168     1.0000 0.15350  0.49580  0.25890  Biso   1.000  C
  C169     1.0000 0.07500  0.53420  0.27620  Biso   1.000  C
  C170     1.0000 0.00170  0.52060  0.32950  Biso   1.000  C
  C171     1.0000 0.00250  0.46760  0.36610  Biso   1.000  C
  C172     1.0000 0.08450  0.42840  0.34700  Biso   1.000  C
  H116     1.0000 0.08720  0.39210  0.37040  Biso   1.000  H
  C173     1.0000 0.15600  0.44260  0.29730  Biso   1.000  C
  H117     1.0000 0.20990  0.41660  0.28730  Biso   1.000  H
  C174     1.0000 0.92520  0.45600  0.41740  Biso   1.000  C
  H118     1.0000 0.92340  0.42050  0.44290  Biso   1.000  H
  C175     1.0000 0.85230  0.49610  0.43070  Biso   1.000  C
  H119     1.0000 0.80000  0.48890  0.46620  Biso   1.000  H
  C176     1.0000 0.85450  0.54850  0.39170  Biso   1.000  C
  H120     1.0000 0.80260  0.57590  0.40100  Biso   1.000  H
