data_image0
_cell_length_a       23.2967
_cell_length_b       13.0779
_cell_length_c       6.9267
_cell_angle_alpha    90
_cell_angle_beta     90
_cell_angle_gamma    90

_symmetry_space_group_name_H-M    "P 1"
_symmetry_int_tables_number       1

loop_
  _symmetry_equiv_pos_as_xyz
  'x, y, z'

loop_
  _atom_site_label
  _atom_site_occupancy
  _atom_site_fract_x
  _atom_site_fract_y
  _atom_site_fract_z
  _atom_site_thermal_displace_type
  _atom_site_B_iso_or_equiv
  _atom_site_type_symbol
  C1       1.0000 0.10828  0.36690  0.96970  Biso   1.000  C
  H1       1.0000 0.13450  0.34140  0.88070  Biso   1.000  H
  C2       1.0000 0.06385  0.42710  0.90420  Biso   1.000  C
  H2       1.0000 0.06050  0.44090  0.77300  Biso   1.000  H
  C3       1.0000 0.02414  0.46700  0.03250  Biso   1.000  C
  C4       1.0000 0.03172  0.44210  0.22670  Biso   1.000  C
  H3       1.0000 0.00630  0.46690  0.31910  Biso   1.000  H
  C5       1.0000 0.07640  0.38130  0.28090  Biso   1.000  C
  H4       1.0000 0.08020  0.36490  0.41090  Biso   1.000  H
  C6       1.0000 0.28806  0.16920  0.34220  Biso   1.000  C
  C7       1.0000 0.31970  0.08390  0.43670  Biso   1.000  C
  H5       1.0000 0.36020  0.09510  0.42420  Biso   1.000  H
  H6       1.0000 0.30960  0.08120  0.57110  Biso   1.000  H
  H7       1.0000 0.30950  0.02050  0.37600  Biso   1.000  H
  C8       1.0000 0.41238  0.30110  0.39370  Biso   1.000  C
  C9       1.0000 0.38330  0.35800  0.55390  Biso   1.000  C
  H8       1.0000 0.34250  0.35210  0.54000  Biso   1.000  H
  H9       1.0000 0.39480  0.32960  0.67580  Biso   1.000  H
  H10      1.0000 0.39410  0.42880  0.54880  Biso   1.000  H
  N1       1.0000 0.11514  0.34380  0.15680  Biso   1.000  N
  O1       1.0000 0.23372  0.16030  0.35230  Biso   1.000  O
  O2       1.0000 0.46817  0.30300  0.39570  Biso   1.000  O
  C10      1.0000 0.10828  0.13310  0.53030  Biso   1.000  C
  H11      1.0000 0.13450  0.15860  0.61930  Biso   1.000  H
  C11      1.0000 0.06385  0.07290  0.59580  Biso   1.000  C
  H12      1.0000 0.06050  0.05910  0.72700  Biso   1.000  H
  C12      1.0000 0.02414  0.03300  0.46750  Biso   1.000  C
  C13      1.0000 0.03172  0.05790  0.27330  Biso   1.000  C
  H13      1.0000 0.00630  0.03310  0.18090  Biso   1.000  H
  C14      1.0000 0.07640  0.11870  0.21910  Biso   1.000  C
  H14      1.0000 0.08020  0.13510  0.08910  Biso   1.000  H
  C15      1.0000 0.28806  0.33080  0.15780  Biso   1.000  C
  C16      1.0000 0.31970  0.41610  0.06330  Biso   1.000  C
  H15      1.0000 0.36020  0.40490  0.07580  Biso   1.000  H
  H16      1.0000 0.30960  0.41880  0.92890  Biso   1.000  H
  H17      1.0000 0.30950  0.47950  0.12400  Biso   1.000  H
  C17      1.0000 0.41238  0.19890  0.10630  Biso   1.000  C
  C18      1.0000 0.38330  0.14200  0.94610  Biso   1.000  C
  H18      1.0000 0.34250  0.14790  0.96000  Biso   1.000  H
  H19      1.0000 0.39480  0.17040  0.82420  Biso   1.000  H
  H20      1.0000 0.39410  0.07120  0.95120  Biso   1.000  H
  N2       1.0000 0.11514  0.15620  0.34320  Biso   1.000  N
  O3       1.0000 0.23372  0.33970  0.14770  Biso   1.000  O
  O4       1.0000 0.46817  0.19700  0.10430  Biso   1.000  O
  C19      1.0000 0.89172  0.63310  0.03030  Biso   1.000  C
  H21      1.0000 0.86550  0.65860  0.11930  Biso   1.000  H
  C20      1.0000 0.93615  0.57290  0.09580  Biso   1.000  C
  H22      1.0000 0.93950  0.55910  0.22700  Biso   1.000  H
  C21      1.0000 0.97586  0.53300  0.96750  Biso   1.000  C
  C22      1.0000 0.96828  0.55790  0.77330  Biso   1.000  C
  H23      1.0000 0.99370  0.53310  0.68090  Biso   1.000  H
  C23      1.0000 0.92360  0.61870  0.71910  Biso   1.000  C
  H24      1.0000 0.91980  0.63510  0.58910  Biso   1.000  H
  C24      1.0000 0.71194  0.83080  0.65780  Biso   1.000  C
  C25      1.0000 0.68030  0.91610  0.56330  Biso   1.000  C
  H25      1.0000 0.63980  0.90490  0.57580  Biso   1.000  H
  H26      1.0000 0.69040  0.91880  0.42890  Biso   1.000  H
  H27      1.0000 0.69050  0.97950  0.62400  Biso   1.000  H
  C26      1.0000 0.58762  0.69890  0.60630  Biso   1.000  C
  C27      1.0000 0.61670  0.64200  0.44610  Biso   1.000  C
  H28      1.0000 0.65750  0.64790  0.46000  Biso   1.000  H
  H29      1.0000 0.60520  0.67040  0.32420  Biso   1.000  H
  H30      1.0000 0.60590  0.57120  0.45120  Biso   1.000  H
  N3       1.0000 0.88486  0.65620  0.84320  Biso   1.000  N
  O5       1.0000 0.76628  0.83970  0.64770  Biso   1.000  O
  O6       1.0000 0.53183  0.69700  0.60430  Biso   1.000  O
  C28      1.0000 0.89172  0.86690  0.46970  Biso   1.000  C
  H31      1.0000 0.86550  0.84140  0.38070  Biso   1.000  H
  C29      1.0000 0.93615  0.92710  0.40420  Biso   1.000  C
  H32      1.0000 0.93950  0.94090  0.27300  Biso   1.000  H
  C30      1.0000 0.97586  0.96700  0.53250  Biso   1.000  C
  C31      1.0000 0.96828  0.94210  0.72670  Biso   1.000  C
  H33      1.0000 0.99370  0.96690  0.81910  Biso   1.000  H
  C32      1.0000 0.92360  0.88130  0.78090  Biso   1.000  C
  H34      1.0000 0.91980  0.86490  0.91090  Biso   1.000  H
  C33      1.0000 0.71194  0.66920  0.84220  Biso   1.000  C
  C34      1.0000 0.68030  0.58390  0.93670  Biso   1.000  C
  H35      1.0000 0.63980  0.59510  0.92420  Biso   1.000  H
  H36      1.0000 0.69040  0.58120  0.07110  Biso   1.000  H
  H37      1.0000 0.69050  0.52050  0.87600  Biso   1.000  H
  C35      1.0000 0.58762  0.80110  0.89370  Biso   1.000  C
  C36      1.0000 0.61670  0.85800  0.05390  Biso   1.000  C
  H38      1.0000 0.65750  0.85210  0.04000  Biso   1.000  H
  H39      1.0000 0.60520  0.82960  0.17580  Biso   1.000  H
  H40      1.0000 0.60590  0.92880  0.04880  Biso   1.000  H
  N4       1.0000 0.88486  0.84380  0.65680  Biso   1.000  N
  O7       1.0000 0.76628  0.66030  0.85230  Biso   1.000  O
  O8       1.0000 0.53183  0.80300  0.89570  Biso   1.000  O
  C37      1.0000 0.31710  0.25000  0.25000  Biso   1.000  C
  C38      1.0000 0.38120  0.25000  0.25000  Biso   1.000  C
  Cu1      1.0000 0.17754  0.25000  0.25000  Biso   1.000  Cu
  H41      1.0000 0.47100  0.25000  0.25000  Biso   1.000  H
  C39      1.0000 0.68290  0.75000  0.75000  Biso   1.000  C
  C40      1.0000 0.61880  0.75000  0.75000  Biso   1.000  C
  Cu2      1.0000 0.82246  0.75000  0.75000  Biso   1.000  Cu
  H42      1.0000 0.52900  0.75000  0.75000  Biso   1.000  H
  C41      1.0000 0.39172  0.63310  0.96970  Biso   1.000  C
  H43      1.0000 0.36550  0.65860  0.88070  Biso   1.000  H
  C42      1.0000 0.43615  0.57290  0.90420  Biso   1.000  C
  H44      1.0000 0.43950  0.55910  0.77300  Biso   1.000  H
  C43      1.0000 0.47586  0.53300  0.03250  Biso   1.000  C
  C44      1.0000 0.46828  0.55790  0.22670  Biso   1.000  C
  H45      1.0000 0.49370  0.53310  0.31910  Biso   1.000  H
  C45      1.0000 0.42360  0.61870  0.28090  Biso   1.000  C
  H46      1.0000 0.41980  0.63510  0.41090  Biso   1.000  H
  C46      1.0000 0.21194  0.83080  0.34220  Biso   1.000  C
  C47      1.0000 0.18030  0.91610  0.43670  Biso   1.000  C
  H47      1.0000 0.13980  0.90490  0.42420  Biso   1.000  H
  H48      1.0000 0.19040  0.91880  0.57110  Biso   1.000  H
  H49      1.0000 0.19050  0.97950  0.37600  Biso   1.000  H
  C48      1.0000 0.08762  0.69890  0.39370  Biso   1.000  C
  C49      1.0000 0.11670  0.64200  0.55390  Biso   1.000  C
  H50      1.0000 0.15750  0.64790  0.54000  Biso   1.000  H
  H51      1.0000 0.10520  0.67040  0.67580  Biso   1.000  H
  H52      1.0000 0.10590  0.57120  0.54880  Biso   1.000  H
  N5       1.0000 0.38486  0.65620  0.15680  Biso   1.000  N
  O9       1.0000 0.26628  0.83970  0.35230  Biso   1.000  O
  O10      1.0000 0.03183  0.69700  0.39570  Biso   1.000  O
  C50      1.0000 0.39172  0.86690  0.53030  Biso   1.000  C
  H53      1.0000 0.36550  0.84140  0.61930  Biso   1.000  H
  C51      1.0000 0.43615  0.92710  0.59580  Biso   1.000  C
  H54      1.0000 0.43950  0.94090  0.72700  Biso   1.000  H
  C52      1.0000 0.47586  0.96700  0.46750  Biso   1.000  C
  C53      1.0000 0.46828  0.94210  0.27330  Biso   1.000  C
  H55      1.0000 0.49370  0.96690  0.18090  Biso   1.000  H
  C54      1.0000 0.42360  0.88130  0.21910  Biso   1.000  C
  H56      1.0000 0.41980  0.86490  0.08910  Biso   1.000  H
  C55      1.0000 0.21194  0.66920  0.15780  Biso   1.000  C
  C56      1.0000 0.18030  0.58390  0.06330  Biso   1.000  C
  H57      1.0000 0.13980  0.59510  0.07580  Biso   1.000  H
  H58      1.0000 0.19040  0.58120  0.92890  Biso   1.000  H
  H59      1.0000 0.19050  0.52050  0.12400  Biso   1.000  H
  C57      1.0000 0.08762  0.80110  0.10630  Biso   1.000  C
  C58      1.0000 0.11670  0.85800  0.94610  Biso   1.000  C
  H60      1.0000 0.15750  0.85210  0.96000  Biso   1.000  H
  H61      1.0000 0.10520  0.82960  0.82420  Biso   1.000  H
  H62      1.0000 0.10590  0.92880  0.95120  Biso   1.000  H
  N6       1.0000 0.38486  0.84380  0.34320  Biso   1.000  N
  O11      1.0000 0.26628  0.66030  0.14770  Biso   1.000  O
  O12      1.0000 0.03183  0.80300  0.10430  Biso   1.000  O
  C59      1.0000 0.60828  0.36690  0.03030  Biso   1.000  C
  H63      1.0000 0.63450  0.34140  0.11930  Biso   1.000  H
  C60      1.0000 0.56385  0.42710  0.09580  Biso   1.000  C
  H64      1.0000 0.56050  0.44090  0.22700  Biso   1.000  H
  C61      1.0000 0.52414  0.46700  0.96750  Biso   1.000  C
  C62      1.0000 0.53172  0.44210  0.77330  Biso   1.000  C
  H65      1.0000 0.50630  0.46690  0.68090  Biso   1.000  H
  C63      1.0000 0.57640  0.38130  0.71910  Biso   1.000  C
  H66      1.0000 0.58020  0.36490  0.58910  Biso   1.000  H
  C64      1.0000 0.78806  0.16920  0.65780  Biso   1.000  C
  C65      1.0000 0.81970  0.08390  0.56330  Biso   1.000  C
  H67      1.0000 0.86020  0.09510  0.57580  Biso   1.000  H
  H68      1.0000 0.80960  0.08120  0.42890  Biso   1.000  H
  H69      1.0000 0.80950  0.02050  0.62400  Biso   1.000  H
  C66      1.0000 0.91238  0.30110  0.60630  Biso   1.000  C
  C67      1.0000 0.88330  0.35800  0.44610  Biso   1.000  C
  H70      1.0000 0.84250  0.35210  0.46000  Biso   1.000  H
  H71      1.0000 0.89480  0.32960  0.32420  Biso   1.000  H
  H72      1.0000 0.89410  0.42880  0.45120  Biso   1.000  H
  N7       1.0000 0.61514  0.34380  0.84320  Biso   1.000  N
  O13      1.0000 0.73372  0.16030  0.64770  Biso   1.000  O
  O14      1.0000 0.96817  0.30300  0.60430  Biso   1.000  O
  C68      1.0000 0.60828  0.13310  0.46970  Biso   1.000  C
  H73      1.0000 0.63450  0.15860  0.38070  Biso   1.000  H
  C69      1.0000 0.56385  0.07290  0.40420  Biso   1.000  C
  H74      1.0000 0.56050  0.05910  0.27300  Biso   1.000  H
  C70      1.0000 0.52414  0.03300  0.53250  Biso   1.000  C
  C71      1.0000 0.53172  0.05790  0.72670  Biso   1.000  C
  H75      1.0000 0.50630  0.03310  0.81910  Biso   1.000  H
  C72      1.0000 0.57640  0.11870  0.78090  Biso   1.000  C
  H76      1.0000 0.58020  0.13510  0.91090  Biso   1.000  H
  C73      1.0000 0.78806  0.33080  0.84220  Biso   1.000  C
  C74      1.0000 0.81970  0.41610  0.93670  Biso   1.000  C
  H77      1.0000 0.86020  0.40490  0.92420  Biso   1.000  H
  H78      1.0000 0.80960  0.41880  0.07110  Biso   1.000  H
  H79      1.0000 0.80950  0.47950  0.87600  Biso   1.000  H
  C75      1.0000 0.91238  0.19890  0.89370  Biso   1.000  C
  C76      1.0000 0.88330  0.14200  0.05390  Biso   1.000  C
  H80      1.0000 0.84250  0.14790  0.04000  Biso   1.000  H
  H81      1.0000 0.89480  0.17040  0.17580  Biso   1.000  H
  H82      1.0000 0.89410  0.07120  0.04880  Biso   1.000  H
  N8       1.0000 0.61514  0.15620  0.65680  Biso   1.000  N
  O15      1.0000 0.73372  0.33970  0.85230  Biso   1.000  O
  O16      1.0000 0.96817  0.19700  0.89570  Biso   1.000  O
  C77      1.0000 0.18290  0.75000  0.25000  Biso   1.000  C
  C78      1.0000 0.11880  0.75000  0.25000  Biso   1.000  C
  Cu3      1.0000 0.32246  0.75000  0.25000  Biso   1.000  Cu
  H83      1.0000 0.02900  0.75000  0.25000  Biso   1.000  H
  C79      1.0000 0.81710  0.25000  0.75000  Biso   1.000  C
  C80      1.0000 0.88120  0.25000  0.75000  Biso   1.000  C
  Cu4      1.0000 0.67754  0.25000  0.75000  Biso   1.000  Cu
  H84      1.0000 0.97100  0.25000  0.75000  Biso   1.000  H
