data_image0
_cell_length_a       10.314
_cell_length_b       7.447
_cell_length_c       24.04
_cell_angle_alpha    90
_cell_angle_beta     95.034
_cell_angle_gamma    90

_symmetry_space_group_name_H-M    "P 1"
_symmetry_int_tables_number       1

loop_
  _symmetry_equiv_pos_as_xyz
  'x, y, z'

loop_
  _atom_site_label
  _atom_site_occupancy
  _atom_site_fract_x
  _atom_site_fract_y
  _atom_site_fract_z
  _atom_site_thermal_displace_type
  _atom_site_B_iso_or_equiv
  _atom_site_type_symbol
  S1       1.0000 0.67310  0.80353  0.29921  Biso   1.000  S
  C1       1.0000 0.22840  0.82390  0.25854  Biso   1.000  C
  N1       1.0000 0.84126  0.59560  0.04204  Biso   1.000  N
  C2       1.0000 0.62290  0.56450  0.06840  Biso   1.000  C
  H1       1.0000 0.54190  0.50990  0.06190  Biso   1.000  H
  N2       1.0000 0.69190  0.77370  0.23407  Biso   1.000  N
  N3       1.0000 0.51570  0.81280  0.29780  Biso   1.000  N
  C3       1.0000 0.54110  0.73290  0.14862  Biso   1.000  C
  C4       1.0000 0.64470  0.68920  0.11135  Biso   1.000  C
  C5       1.0000 0.46990  0.79150  0.24369  Biso   1.000  C
  C6       1.0000 0.86170  0.71990  0.08256  Biso   1.000  C
  H2       1.0000 0.94260  0.77570  0.08710  Biso   1.000  H
  C7       1.0000 0.41110  0.73590  0.12937  Biso   1.000  C
  H3       1.0000 0.38800  0.71580  0.09160  Biso   1.000  H
  C8       1.0000 0.33530  0.79500  0.22206  Biso   1.000  C
  C9       1.0000 0.11610  0.92030  0.23992  Biso   1.000  C
  H4       1.0000 0.10670  0.96610  0.20380  Biso   1.000  H
  C10      1.0000 0.57090  0.76790  0.20692  Biso   1.000  C
  C11      1.0000 0.23340  0.75620  0.31282  Biso   1.000  C
  H5       1.0000 0.30490  0.68950  0.32720  Biso   1.000  H
  C12      1.0000 0.31100  0.76870  0.16526  Biso   1.000  C
  H6       1.0000 0.22520  0.77260  0.14970  Biso   1.000  H
  C13      1.0000 0.76870  0.76870  0.11773  Biso   1.000  C
  H7       1.0000 0.78810  0.85380  0.14550  Biso   1.000  H
  N4       1.0000 0.02500  0.88470  0.32780  Biso   1.000  N
  C14      1.0000 0.72160  0.52200  0.03541  Biso   1.000  C
  H8       1.0000 0.70450  0.43800  0.00710  Biso   1.000  H
  C15      1.0000 0.13070  0.78920  0.34542  Biso   1.000  C
  H9       1.0000 0.13580  0.74220  0.38140  Biso   1.000  H
  C16      1.0000 0.01950  0.94710  0.27547  Biso   1.000  C
  H10      1.0000 0.94640  0.01240  0.26220  Biso   1.000  H
  S2       1.0000 0.32690  0.19647  0.70079  Biso   1.000  S
  C17      1.0000 0.77160  0.17610  0.74146  Biso   1.000  C
  N5       1.0000 0.15874  0.40440  0.95796  Biso   1.000  N
  C18      1.0000 0.37710  0.43550  0.93160  Biso   1.000  C
  H11      1.0000 0.45810  0.49010  0.93810  Biso   1.000  H
  N6       1.0000 0.30810  0.22630  0.76593  Biso   1.000  N
  N7       1.0000 0.48430  0.18720  0.70220  Biso   1.000  N
  C19      1.0000 0.45890  0.26710  0.85138  Biso   1.000  C
  C20      1.0000 0.35530  0.31080  0.88865  Biso   1.000  C
  C21      1.0000 0.53010  0.20850  0.75631  Biso   1.000  C
  C22      1.0000 0.13830  0.28010  0.91744  Biso   1.000  C
  H12      1.0000 0.05740  0.22430  0.91290  Biso   1.000  H
  C23      1.0000 0.58890  0.26410  0.87063  Biso   1.000  C
  H13      1.0000 0.61200  0.28420  0.90840  Biso   1.000  H
  C24      1.0000 0.66470  0.20500  0.77794  Biso   1.000  C
  C25      1.0000 0.88390  0.07970  0.76008  Biso   1.000  C
  H14      1.0000 0.89330  0.03390  0.79620  Biso   1.000  H
  C26      1.0000 0.42910  0.23210  0.79308  Biso   1.000  C
  C27      1.0000 0.76660  0.24380  0.68718  Biso   1.000  C
  H15      1.0000 0.69510  0.31050  0.67280  Biso   1.000  H
  C28      1.0000 0.68900  0.23130  0.83474  Biso   1.000  C
  H16      1.0000 0.77480  0.22740  0.85030  Biso   1.000  H
  C29      1.0000 0.23130  0.23130  0.88227  Biso   1.000  C
  H17      1.0000 0.21190  0.14620  0.85450  Biso   1.000  H
  N8       1.0000 0.97500  0.11530  0.67220  Biso   1.000  N
  C30      1.0000 0.27840  0.47800  0.96459  Biso   1.000  C
  H18      1.0000 0.29550  0.56200  0.99290  Biso   1.000  H
  C31      1.0000 0.86930  0.21080  0.65458  Biso   1.000  C
  H19      1.0000 0.86420  0.25780  0.61860  Biso   1.000  H
  C32      1.0000 0.98050  0.05290  0.72453  Biso   1.000  C
  H20      1.0000 0.05360  0.98760  0.73780  Biso   1.000  H
  Ni1      1.0000 0.00000  0.50000  0.00000  Biso   1.000  Ni
  S3       1.0000 0.32690  0.30353  0.20079  Biso   1.000  S
  C33      1.0000 0.77160  0.32390  0.24146  Biso   1.000  C
  N9       1.0000 0.15874  0.09560  0.45796  Biso   1.000  N
  C34      1.0000 0.37710  0.06450  0.43160  Biso   1.000  C
  H21      1.0000 0.45810  0.00990  0.43810  Biso   1.000  H
  N10      1.0000 0.30810  0.27370  0.26593  Biso   1.000  N
  N11      1.0000 0.48430  0.31280  0.20220  Biso   1.000  N
  C35      1.0000 0.45890  0.23290  0.35138  Biso   1.000  C
  C36      1.0000 0.35530  0.18920  0.38865  Biso   1.000  C
  C37      1.0000 0.53010  0.29150  0.25631  Biso   1.000  C
  C38      1.0000 0.13830  0.21990  0.41744  Biso   1.000  C
  H22      1.0000 0.05740  0.27570  0.41290  Biso   1.000  H
  C39      1.0000 0.58890  0.23590  0.37063  Biso   1.000  C
  H23      1.0000 0.61200  0.21580  0.40840  Biso   1.000  H
  C40      1.0000 0.66470  0.29500  0.27794  Biso   1.000  C
  C41      1.0000 0.88390  0.42030  0.26008  Biso   1.000  C
  H24      1.0000 0.89330  0.46610  0.29620  Biso   1.000  H
  C42      1.0000 0.42910  0.26790  0.29308  Biso   1.000  C
  C43      1.0000 0.76660  0.25620  0.18718  Biso   1.000  C
  H25      1.0000 0.69510  0.18950  0.17280  Biso   1.000  H
  C44      1.0000 0.68900  0.26870  0.33474  Biso   1.000  C
  H26      1.0000 0.77480  0.27260  0.35030  Biso   1.000  H
  C45      1.0000 0.23130  0.26870  0.38227  Biso   1.000  C
  H27      1.0000 0.21190  0.35380  0.35450  Biso   1.000  H
  N12      1.0000 0.97500  0.38470  0.17220  Biso   1.000  N
  C46      1.0000 0.27840  0.02200  0.46459  Biso   1.000  C
  H28      1.0000 0.29550  0.93800  0.49290  Biso   1.000  H
  C47      1.0000 0.86930  0.28920  0.15458  Biso   1.000  C
  H29      1.0000 0.86420  0.24220  0.11860  Biso   1.000  H
  C48      1.0000 0.98050  0.44710  0.22453  Biso   1.000  C
  H30      1.0000 0.05360  0.51240  0.23780  Biso   1.000  H
  S4       1.0000 0.67310  0.69647  0.79921  Biso   1.000  S
  C49      1.0000 0.22840  0.67610  0.75854  Biso   1.000  C
  N13      1.0000 0.84126  0.90440  0.54204  Biso   1.000  N
  C50      1.0000 0.62290  0.93550  0.56840  Biso   1.000  C
  H31      1.0000 0.54190  0.99010  0.56190  Biso   1.000  H
  N14      1.0000 0.69190  0.72630  0.73407  Biso   1.000  N
  N15      1.0000 0.51570  0.68720  0.79780  Biso   1.000  N
  C51      1.0000 0.54110  0.76710  0.64862  Biso   1.000  C
  C52      1.0000 0.64470  0.81080  0.61135  Biso   1.000  C
  C53      1.0000 0.46990  0.70850  0.74369  Biso   1.000  C
  C54      1.0000 0.86170  0.78010  0.58256  Biso   1.000  C
  H32      1.0000 0.94260  0.72430  0.58710  Biso   1.000  H
  C55      1.0000 0.41110  0.76410  0.62937  Biso   1.000  C
  H33      1.0000 0.38800  0.78420  0.59160  Biso   1.000  H
  C56      1.0000 0.33530  0.70500  0.72206  Biso   1.000  C
  C57      1.0000 0.11610  0.57970  0.73992  Biso   1.000  C
  H34      1.0000 0.10670  0.53390  0.70380  Biso   1.000  H
  C58      1.0000 0.57090  0.73210  0.70692  Biso   1.000  C
  C59      1.0000 0.23340  0.74380  0.81282  Biso   1.000  C
  H35      1.0000 0.30490  0.81050  0.82720  Biso   1.000  H
  C60      1.0000 0.31100  0.73130  0.66526  Biso   1.000  C
  H36      1.0000 0.22520  0.72740  0.64970  Biso   1.000  H
  C61      1.0000 0.76870  0.73130  0.61773  Biso   1.000  C
  H37      1.0000 0.78810  0.64620  0.64550  Biso   1.000  H
  N16      1.0000 0.02500  0.61530  0.82780  Biso   1.000  N
  C62      1.0000 0.72160  0.97800  0.53541  Biso   1.000  C
  H38      1.0000 0.70450  0.06200  0.50710  Biso   1.000  H
  C63      1.0000 0.13070  0.71080  0.84542  Biso   1.000  C
  H39      1.0000 0.13580  0.75780  0.88140  Biso   1.000  H
  C64      1.0000 0.01950  0.55290  0.77547  Biso   1.000  C
  H40      1.0000 0.94640  0.48760  0.76220  Biso   1.000  H
  Ni2      1.0000 0.00000  0.00000  0.50000  Biso   1.000  Ni
