data_image0
_cell_length_a       16.645
_cell_length_b       18.268
_cell_length_c       23.747
_cell_angle_alpha    89.543
_cell_angle_beta     74.209
_cell_angle_gamma    76.897

_symmetry_space_group_name_H-M    "P 1"
_symmetry_int_tables_number       1

loop_
  _symmetry_equiv_pos_as_xyz
  'x, y, z'

loop_
  _atom_site_label
  _atom_site_occupancy
  _atom_site_fract_x
  _atom_site_fract_y
  _atom_site_fract_z
  _atom_site_thermal_displace_type
  _atom_site_B_iso_or_equiv
  _atom_site_type_symbol
  Mo1      1.0000 0.23727  0.79256  0.14962  Biso   1.000  Mo
  Mo2      1.0000 0.22085  0.98198  0.09152  Biso   1.000  Mo
  Mo3      1.0000 0.30031  0.33715  0.16042  Biso   1.000  Mo
  Mo4      1.0000 0.00049  0.02584  0.34442  Biso   1.000  Mo
  Mo5      1.0000 0.04638  0.84927  0.25783  Biso   1.000  Mo
  Mo6      1.0000 0.00656  0.03761  0.20167  Biso   1.000  Mo
  Mo7      1.0000 0.29781  0.32534  0.30909  Biso   1.000  Mo
  Mo8      1.0000 0.21040  0.96037  0.37864  Biso   1.000  Mo
  Mo9      1.0000 0.23520  0.15873  0.38229  Biso   1.000  Mo
  Mo10     1.0000 0.02501  0.22544  0.34962  Biso   1.000  Mo
  Mo11     1.0000 0.24264  0.18062  0.09470  Biso   1.000  Mo
  Mo12     1.0000 0.42183  0.72857  0.18972  Biso   1.000  Mo
  Mo13     1.0000 0.02914  0.23703  0.20627  Biso   1.000  Mo
  Mo14     1.0000 0.23203  0.78168  0.29844  Biso   1.000  Mo
  Mo15     1.0000 0.57947  0.07588  0.17744  Biso   1.000  Mo
  Mo16     1.0000 0.55621  0.87351  0.17452  Biso   1.000  Mo
  Mo17     1.0000 0.10940  0.37901  0.27024  Biso   1.000  Mo
  Mo18     1.0000 0.48644  0.28380  0.19977  Biso   1.000  Mo
  Sr1      1.0000 0.36916  0.03018  0.21202  Biso   1.000  Sr
  P1       1.0000 0.19609  0.96305  0.23781  Biso   1.000  P
  P2       1.0000 0.22230  0.18892  0.24204  Biso   1.000  P
  P3       1.0000 0.40260  0.85914  0.30039  Biso   1.000  P
  P4       1.0000 0.40930  0.87479  0.09798  Biso   1.000  P
  P5       1.0000 0.44170  0.16872  0.10272  Biso   1.000  P
  Mn1      1.0000 0.60739  0.78024  0.30439  Biso   1.000  Mn
  P6       1.0000 0.43780  0.15418  0.30571  Biso   1.000  P
  O1       1.0000 0.00600  0.12850  0.34800  Biso   1.000  O
  O2       1.0000 0.12560  0.21070  0.13910  Biso   1.000  O
  O3       1.0000 0.24130  0.07940  0.08620  Biso   1.000  O
  O4       1.0000 0.10470  0.01790  0.13480  Biso   1.000  O
  O5       1.0000 0.20850  0.87600  0.11100  Biso   1.000  O
  O6       1.0000 0.09540  0.99860  0.37670  Biso   1.000  O
  O7       1.0000 0.01090  0.14010  0.20700  Biso   1.000  O
  O8       1.0000 0.25630  0.28360  0.11900  Biso   1.000  O
  O9       1.0000 0.44220  0.90950  0.25350  Biso   1.000  O
  O10      1.0000 0.12500  0.19380  0.25940  Biso   1.000  O
  O11      1.0000 0.01830  0.91320  0.32170  Biso   1.000  O
  O12      1.0000 0.23090  0.05670  0.38310  Biso   1.000  O
  O13      1.0000 0.02120  0.92100  0.20800  Biso   1.000  O
  O14      1.0000 0.11880  0.19010  0.38010  Biso   1.000  O
  O15      1.0000 0.20100  0.85660  0.35350  Biso   1.000  O
  O16      1.0000 0.35720  0.82410  0.14000  Biso   1.000  O
  O17      1.0000 0.55200  0.97530  0.18080  Biso   1.000  O
  O18      1.0000 0.36090  0.34420  0.22550  Biso   1.000  O
  O19      1.0000 0.18860  0.87900  0.23500  Biso   1.000  O
  O20      1.0000 0.26640  0.15120  0.18120  Biso   1.000  O
  O21      1.0000 0.94130  0.04180  0.28450  Biso   1.000  O
  O22      1.0000 0.06650  0.32620  0.33080  Biso   1.000  O
  O23      1.0000 0.46840  0.10040  0.13760  Biso   1.000  O
  O24      1.0000 0.36650  0.13430  0.35630  Biso   1.000  O
  O25      1.0000 0.28960  0.73920  0.21250  Biso   1.000  O
  O26      1.0000 0.23470  0.27250  0.24300  Biso   1.000  O
  O27      1.0000 0.35200  0.81330  0.27140  Biso   1.000  O
  O28      1.0000 0.33860  0.90980  0.35390  Biso   1.000  O
  O29      1.0000 0.35000  0.93040  0.06890  Biso   1.000  O
  O30      1.0000 0.24940  0.98270  0.17750  Biso   1.000  O
  O31      1.0000 0.96790  0.25750  0.28890  Biso   1.000  O
  O32      1.0000 0.07040  0.33570  0.21600  Biso   1.000  O
  O33      1.0000 0.20390  0.40500  0.19910  Biso   1.000  O
  O34      1.0000 0.24350  0.97400  0.28300  Biso   1.000  O
  O35      1.0000 0.51670  0.09050  0.04860  Biso   1.000  O
  O36      1.0000 0.26420  0.14310  0.28520  Biso   1.000  O
  O37      1.0000 0.13190  0.78000  0.18570  Biso   1.000  O
  O38      1.0000 0.10420  0.01280  0.25460  Biso   1.000  O
  O39      1.0000 0.40200  0.23060  0.27860  Biso   1.000  O
  O40      1.0000 0.37430  0.15630  0.07270  Biso   1.000  O
  O41      1.0000 0.46460  0.09250  0.25610  Biso   1.000  O
  O42      1.0000 0.61940  0.83500  0.22020  Biso   1.000  O
  O43      1.0000 0.40470  0.23940  0.14790  Biso   1.000  O
  O44      1.0000 0.55610  0.18660  0.18350  Biso   1.000  O
  O45      1.0000 0.20130  0.39570  0.30960  Biso   1.000  O
  O46      1.0000 0.49810  0.91600  0.05620  Biso   1.000  O
  O47      1.0000 0.44980  0.91740  0.13440  Biso   1.000  O
  O48      1.0000 0.12870  0.77130  0.29490  Biso   1.000  O
  O49      1.0000 0.51230  0.15990  0.32890  Biso   1.000  O
  O50      1.0000 0.47030  0.80560  0.32210  Biso   1.000  O
  O51      1.0000 0.24840  0.26560  0.36240  Biso   1.000  O
  O52      1.0000 0.50560  0.78120  0.17740  Biso   1.000  O
  N1       1.0000 0.80080  0.90230  0.41040  Biso   1.000  N
  N2       1.0000 0.66340  0.99350  0.37100  Biso   1.000  N
  N3       1.0000 0.84900  0.77800  0.39460  Biso   1.000  N
  C1       1.0000 0.75190  0.87370  0.38410  Biso   1.000  C
  O53      1.0000 0.74540  0.72570  0.28580  Biso   1.000  O
  H1       1.0000 0.77400  0.75430  0.26840  Biso   1.000  H
  O54      1.0000 0.61150  0.67340  0.25520  Biso   1.000  O
  H2       1.0000 0.57780  0.65100  0.27570  Biso   1.000  H
  C2       1.0000 0.59590  0.01340  0.34630  Biso   1.000  C
  H3       1.0000 0.56710  0.06290  0.34430  Biso   1.000  H
  C3       1.0000 0.93300  0.83970  0.44120  Biso   1.000  C
  C4       1.0000 0.86030  0.84100  0.41610  Biso   1.000  C
  N4       1.0000 0.62710  0.89280  0.33890  Biso   1.000  N
  C5       1.0000 0.67830  0.91960  0.36620  Biso   1.000  C
  N5       1.0000 0.77810  0.80050  0.37260  Biso   1.000  N
  C6       1.0000 0.93190  0.89660  0.47890  Biso   1.000  C
  H4       1.0000 0.88440  0.93700  0.49020  Biso   1.000  H
  O55      1.0000 0.59630  0.73140  0.38960  Biso   1.000  O
  H5       1.0000 0.56020  0.76060  0.41500  Biso   1.000  H
  N6       1.0000 0.00870  0.77870  0.42360  Biso   1.000  N
  H6       1.0000 0.01260  0.74410  0.39800  Biso   1.000  H
  N7       1.0000 0.57680  0.95490  0.32590  Biso   1.000  N
  H7       1.0000 0.53860  0.95620  0.30750  Biso   1.000  H
  C7       1.0000 0.06940  0.83270  0.48470  Biso   1.000  C
  H8       1.0000 0.11450  0.83110  0.50110  Biso   1.000  H
  N8       1.0000 0.00060  0.89320  0.49950  Biso   1.000  N
  H9       1.0000 0.00110  0.92950  0.52220  Biso   1.000  H
  C8       1.0000 0.07480  0.77680  0.44870  Biso   1.000  C
  H10      1.0000 0.12250  0.73650  0.44010  Biso   1.000  H
  C9       1.0000 0.93060  0.16730  0.51530  Biso   1.000  C
  H11      1.0000 0.88550  0.16890  0.49890  Biso   1.000  H
  N9       1.0000 0.99940  0.10680  0.50050  Biso   1.000  N
  H12      1.0000 0.99890  0.07050  0.47780  Biso   1.000  H
  C10      1.0000 0.92520  0.22320  0.55130  Biso   1.000  C
  H13      1.0000 0.87750  0.26350  0.55990  Biso   1.000  H
  Mo19     1.0000 0.76273  0.20744  0.85038  Biso   1.000  Mo
  Mo20     1.0000 0.77915  0.01802  0.90848  Biso   1.000  Mo
  Mo21     1.0000 0.69969  0.66285  0.83958  Biso   1.000  Mo
  Mo22     1.0000 0.99951  0.97416  0.65558  Biso   1.000  Mo
  Mo23     1.0000 0.95362  0.15073  0.74217  Biso   1.000  Mo
  Mo24     1.0000 0.99344  0.96239  0.79833  Biso   1.000  Mo
  Mo25     1.0000 0.70219  0.67466  0.69091  Biso   1.000  Mo
  Mo26     1.0000 0.78960  0.03963  0.62136  Biso   1.000  Mo
  Mo27     1.0000 0.76480  0.84127  0.61771  Biso   1.000  Mo
  Mo28     1.0000 0.97499  0.77456  0.65038  Biso   1.000  Mo
  Mo29     1.0000 0.75736  0.81938  0.90530  Biso   1.000  Mo
  Mo30     1.0000 0.57817  0.27143  0.81028  Biso   1.000  Mo
  Mo31     1.0000 0.97086  0.76297  0.79373  Biso   1.000  Mo
  Mo32     1.0000 0.76797  0.21832  0.70156  Biso   1.000  Mo
  Mo33     1.0000 0.42053  0.92412  0.82256  Biso   1.000  Mo
  Mo34     1.0000 0.44379  0.12649  0.82548  Biso   1.000  Mo
  Mo35     1.0000 0.89060  0.62099  0.72976  Biso   1.000  Mo
  Mo36     1.0000 0.51356  0.71620  0.80023  Biso   1.000  Mo
  Sr2      1.0000 0.63084  0.96982  0.78798  Biso   1.000  Sr
  P7       1.0000 0.80391  0.03695  0.76219  Biso   1.000  P
  P8       1.0000 0.77770  0.81108  0.75796  Biso   1.000  P
  P9       1.0000 0.59740  0.14086  0.69961  Biso   1.000  P
  P10      1.0000 0.59070  0.12521  0.90202  Biso   1.000  P
  P11      1.0000 0.55830  0.83128  0.89728  Biso   1.000  P
  Mn2      1.0000 0.39261  0.21976  0.69561  Biso   1.000  Mn
  P12      1.0000 0.56220  0.84582  0.69429  Biso   1.000  P
  O56      1.0000 0.99400  0.87150  0.65200  Biso   1.000  O
  O57      1.0000 0.87440  0.78930  0.86090  Biso   1.000  O
  O58      1.0000 0.75870  0.92060  0.91380  Biso   1.000  O
  O59      1.0000 0.89530  0.98210  0.86520  Biso   1.000  O
  O60      1.0000 0.79150  0.12400  0.88900  Biso   1.000  O
  O61      1.0000 0.90460  0.00140  0.62330  Biso   1.000  O
  O62      1.0000 0.98910  0.85990  0.79300  Biso   1.000  O
  O63      1.0000 0.74370  0.71640  0.88100  Biso   1.000  O
  O64      1.0000 0.55780  0.09050  0.74650  Biso   1.000  O
  O65      1.0000 0.87500  0.80620  0.74060  Biso   1.000  O
  O66      1.0000 0.98170  0.08680  0.67830  Biso   1.000  O
  O67      1.0000 0.76910  0.94330  0.61690  Biso   1.000  O
  O68      1.0000 0.97880  0.07900  0.79200  Biso   1.000  O
  O69      1.0000 0.88120  0.80990  0.61990  Biso   1.000  O
  O70      1.0000 0.79900  0.14340  0.64650  Biso   1.000  O
  O71      1.0000 0.64280  0.17590  0.86000  Biso   1.000  O
  O72      1.0000 0.44800  0.02470  0.81920  Biso   1.000  O
  O73      1.0000 0.63910  0.65580  0.77450  Biso   1.000  O
  O74      1.0000 0.81140  0.12100  0.76500  Biso   1.000  O
  O75      1.0000 0.73360  0.84880  0.81880  Biso   1.000  O
  O76      1.0000 0.05870  0.95820  0.71550  Biso   1.000  O
  O77      1.0000 0.93350  0.67380  0.66920  Biso   1.000  O
  O78      1.0000 0.53160  0.89960  0.86240  Biso   1.000  O
  O79      1.0000 0.63350  0.86570  0.64370  Biso   1.000  O
  O80      1.0000 0.71040  0.26080  0.78750  Biso   1.000  O
  O81      1.0000 0.76530  0.72750  0.75700  Biso   1.000  O
  O82      1.0000 0.64800  0.18670  0.72860  Biso   1.000  O
  O83      1.0000 0.66140  0.09020  0.64610  Biso   1.000  O
  O84      1.0000 0.65000  0.06960  0.93110  Biso   1.000  O
  O85      1.0000 0.75060  0.01730  0.82250  Biso   1.000  O
  O86      1.0000 0.03210  0.74250  0.71110  Biso   1.000  O
  O87      1.0000 0.92960  0.66430  0.78400  Biso   1.000  O
  O88      1.0000 0.79610  0.59500  0.80090  Biso   1.000  O
  O89      1.0000 0.75650  0.02600  0.71700  Biso   1.000  O
  O90      1.0000 0.48330  0.90950  0.95140  Biso   1.000  O
  O91      1.0000 0.73580  0.85690  0.71480  Biso   1.000  O
  O92      1.0000 0.86810  0.22000  0.81430  Biso   1.000  O
  O93      1.0000 0.89580  0.98720  0.74540  Biso   1.000  O
  O94      1.0000 0.59800  0.76940  0.72140  Biso   1.000  O
  O95      1.0000 0.62570  0.84370  0.92730  Biso   1.000  O
  O96      1.0000 0.53540  0.90750  0.74390  Biso   1.000  O
  O97      1.0000 0.38060  0.16500  0.77980  Biso   1.000  O
  O98      1.0000 0.59530  0.76060  0.85210  Biso   1.000  O
  O99      1.0000 0.44390  0.81340  0.81650  Biso   1.000  O
  O100     1.0000 0.79870  0.60430  0.69040  Biso   1.000  O
  O101     1.0000 0.50190  0.08400  0.94380  Biso   1.000  O
  O102     1.0000 0.55020  0.08260  0.86560  Biso   1.000  O
  O103     1.0000 0.87130  0.22870  0.70510  Biso   1.000  O
  O104     1.0000 0.48770  0.84010  0.67110  Biso   1.000  O
  O105     1.0000 0.52970  0.19440  0.67790  Biso   1.000  O
  O106     1.0000 0.75160  0.73440  0.63760  Biso   1.000  O
  O107     1.0000 0.49440  0.21880  0.82260  Biso   1.000  O
  N10      1.0000 0.19920  0.09770  0.58960  Biso   1.000  N
  N11      1.0000 0.33660  0.00650  0.62900  Biso   1.000  N
  N12      1.0000 0.15100  0.22200  0.60540  Biso   1.000  N
  C11      1.0000 0.24810  0.12630  0.61590  Biso   1.000  C
  O108     1.0000 0.25460  0.27430  0.71420  Biso   1.000  O
  H14      1.0000 0.22600  0.24570  0.73160  Biso   1.000  H
  O109     1.0000 0.38850  0.32660  0.74480  Biso   1.000  O
  H15      1.0000 0.42220  0.34900  0.72430  Biso   1.000  H
  C12      1.0000 0.40410  0.98660  0.65370  Biso   1.000  C
  H16      1.0000 0.43290  0.93710  0.65570  Biso   1.000  H
  C13      1.0000 0.06700  0.16030  0.55880  Biso   1.000  C
  C14      1.0000 0.13970  0.15900  0.58390  Biso   1.000  C
  N13      1.0000 0.37290  0.10720  0.66110  Biso   1.000  N
  C15      1.0000 0.32170  0.08040  0.63380  Biso   1.000  C
  N14      1.0000 0.22190  0.19950  0.62740  Biso   1.000  N
  C16      1.0000 0.06810  0.10340  0.52110  Biso   1.000  C
  H17      1.0000 0.11560  0.06300  0.50980  Biso   1.000  H
  O110     1.0000 0.40370  0.26860  0.61040  Biso   1.000  O
  H18      1.0000 0.43980  0.23940  0.58500  Biso   1.000  H
  N15      1.0000 0.99130  0.22130  0.57640  Biso   1.000  N
  H19      1.0000 0.98740  0.25590  0.60200  Biso   1.000  H
  N16      1.0000 0.42320  0.04510  0.67410  Biso   1.000  N
  H20      1.0000 0.46140  0.04380  0.69250  Biso   1.000  H
