data_image0
_cell_length_a       6.8485
_cell_length_b       27.3531
_cell_length_c       17.0824
_cell_angle_alpha    90
_cell_angle_beta     91.631
_cell_angle_gamma    90

_symmetry_space_group_name_H-M    "P 1"
_symmetry_int_tables_number       1

loop_
  _symmetry_equiv_pos_as_xyz
  'x, y, z'

loop_
  _atom_site_label
  _atom_site_occupancy
  _atom_site_fract_x
  _atom_site_fract_y
  _atom_site_fract_z
  _atom_site_thermal_displace_type
  _atom_site_B_iso_or_equiv
  _atom_site_type_symbol
  C1       1.0000 0.99420  0.74510  0.59220  Biso   1.000  C
  H1       1.0000 0.99050  0.71030  0.57650  Biso   1.000  H
  H2       1.0000 0.99040  0.74640  0.65000  Biso   1.000  H
  C2       1.0000 0.16920  0.77250  0.45510  Biso   1.000  C
  H3       1.0000 0.27200  0.79110  0.42830  Biso   1.000  H
  H4       1.0000 0.17100  0.73860  0.43520  Biso   1.000  H
  C3       1.0000 0.17150  0.83650  0.58190  Biso   1.000  C
  H5       1.0000 0.17340  0.84160  0.63930  Biso   1.000  H
  H6       1.0000 0.27430  0.85750  0.55980  Biso   1.000  H
  C4       1.0000 0.81660  0.76770  0.47140  Biso   1.000  C
  H7       1.0000 0.82360  0.73310  0.45510  Biso   1.000  H
  H8       1.0000 0.69100  0.78110  0.45080  Biso   1.000  H
  C5       1.0000 0.97040  0.84570  0.46300  Biso   1.000  C
  H9       1.0000 0.08120  0.86370  0.44080  Biso   1.000  H
  H10      1.0000 0.84830  0.86090  0.44240  Biso   1.000  H
  C6       1.0000 0.82040  0.82300  0.58140  Biso   1.000  C
  H11      1.0000 0.69450  0.83790  0.56430  Biso   1.000  H
  H12      1.0000 0.83030  0.82540  0.63920  Biso   1.000  H
  C7       1.0000 0.75270  0.63270  0.63990  Biso   1.000  C
  H13      1.0000 0.86420  0.65390  0.65590  Biso   1.000  H
  H14      1.0000 0.75200  0.63010  0.58210  Biso   1.000  H
  C8       1.0000 0.55860  0.54504  0.65650  Biso   1.000  C
  H15      1.0000 0.54890  0.53940  0.59930  Biso   1.000  H
  H16      1.0000 0.54950  0.51290  0.68280  Biso   1.000  H
  C9       1.0000 0.75400  0.58700  0.78280  Biso   1.000  C
  H17      1.0000 0.75310  0.55640  0.81380  Biso   1.000  H
  H18      1.0000 0.86360  0.60740  0.80300  Biso   1.000  H
  C10      1.0000 0.39410  0.62380  0.64020  Biso   1.000  C
  H19      1.0000 0.27170  0.64130  0.65210  Biso   1.000  H
  H20      1.0000 0.39420  0.61820  0.58300  Biso   1.000  H
  C11      1.0000 0.56670  0.66050  0.75270  Biso   1.000  C
  H21      1.0000 0.68180  0.67960  0.77100  Biso   1.000  H
  H22      1.0000 0.44850  0.67870  0.76770  Biso   1.000  H
  C12      1.0000 0.39930  0.58400  0.76560  Biso   1.000  C
  H23      1.0000 0.40290  0.55190  0.79220  Biso   1.000  H
  H24      1.0000 0.27780  0.60080  0.78050  Biso   1.000  H
  N1       1.0000 0.81810  0.76993  0.55880  Biso   1.000  N
  N2       1.0000 0.97700  0.79465  0.43560  Biso   1.000  N
  N3       1.0000 0.97900  0.85140  0.54850  Biso   1.000  N
  N4       1.0000 0.56850  0.65708  0.66300  Biso   1.000  N
  N5       1.0000 0.39320  0.57607  0.68000  Biso   1.000  N
  N6       1.0000 0.56890  0.61334  0.79360  Biso   1.000  N
  P1       1.0000 0.22570  0.77206  0.56088  Biso   1.000  P
  P2       1.0000 0.79340  0.57223  0.68098  Biso   1.000  P
  Ag1      1.0000 0.52199  0.73794  0.61471  Biso   1.000  Ag
  Ag2      1.0000 0.08214  0.53264  0.65106  Biso   1.000  Ag
  C13      1.0000 0.00580  0.24510  0.90780  Biso   1.000  C
  H25      1.0000 0.00950  0.21030  0.92350  Biso   1.000  H
  H26      1.0000 0.00960  0.24640  0.85000  Biso   1.000  H
  C14      1.0000 0.83080  0.27250  0.04490  Biso   1.000  C
  H27      1.0000 0.72800  0.29110  0.07170  Biso   1.000  H
  H28      1.0000 0.82900  0.23860  0.06480  Biso   1.000  H
  C15      1.0000 0.82850  0.33650  0.91810  Biso   1.000  C
  H29      1.0000 0.82660  0.34160  0.86070  Biso   1.000  H
  H30      1.0000 0.72570  0.35750  0.94020  Biso   1.000  H
  C16      1.0000 0.18340  0.26770  0.02860  Biso   1.000  C
  H31      1.0000 0.17640  0.23310  0.04490  Biso   1.000  H
  H32      1.0000 0.30900  0.28110  0.04920  Biso   1.000  H
  C17      1.0000 0.02960  0.34570  0.03700  Biso   1.000  C
  H33      1.0000 0.91880  0.36370  0.05920  Biso   1.000  H
  H34      1.0000 0.15170  0.36090  0.05760  Biso   1.000  H
  C18      1.0000 0.17960  0.32300  0.91860  Biso   1.000  C
  H35      1.0000 0.30550  0.33790  0.93570  Biso   1.000  H
  H36      1.0000 0.16970  0.32540  0.86080  Biso   1.000  H
  C19      1.0000 0.24730  0.13270  0.86010  Biso   1.000  C
  H37      1.0000 0.13580  0.15390  0.84410  Biso   1.000  H
  H38      1.0000 0.24800  0.13010  0.91790  Biso   1.000  H
  C20      1.0000 0.44140  0.04504  0.84350  Biso   1.000  C
  H39      1.0000 0.45110  0.03940  0.90070  Biso   1.000  H
  H40      1.0000 0.45050  0.01290  0.81720  Biso   1.000  H
  C21      1.0000 0.24600  0.08700  0.71720  Biso   1.000  C
  H41      1.0000 0.24690  0.05640  0.68620  Biso   1.000  H
  H42      1.0000 0.13640  0.10740  0.69700  Biso   1.000  H
  C22      1.0000 0.60590  0.12380  0.85980  Biso   1.000  C
  H43      1.0000 0.72830  0.14130  0.84790  Biso   1.000  H
  H44      1.0000 0.60580  0.11820  0.91700  Biso   1.000  H
  C23      1.0000 0.43330  0.16050  0.74730  Biso   1.000  C
  H45      1.0000 0.31820  0.17960  0.72900  Biso   1.000  H
  H46      1.0000 0.55150  0.17870  0.73230  Biso   1.000  H
  C24      1.0000 0.60070  0.08400  0.73440  Biso   1.000  C
  H47      1.0000 0.59710  0.05190  0.70780  Biso   1.000  H
  H48      1.0000 0.72220  0.10080  0.71950  Biso   1.000  H
  N7       1.0000 0.18190  0.26993  0.94120  Biso   1.000  N
  N8       1.0000 0.02300  0.29465  0.06440  Biso   1.000  N
  N9       1.0000 0.02100  0.35140  0.95150  Biso   1.000  N
  N10      1.0000 0.43150  0.15708  0.83700  Biso   1.000  N
  N11      1.0000 0.60680  0.07607  0.82000  Biso   1.000  N
  N12      1.0000 0.43110  0.11334  0.70640  Biso   1.000  N
  P3       1.0000 0.77430  0.27206  0.93912  Biso   1.000  P
  P4       1.0000 0.20660  0.07223  0.81902  Biso   1.000  P
  Ag3      1.0000 0.47801  0.23794  0.88529  Biso   1.000  Ag
  Ag4      1.0000 0.91786  0.03264  0.84894  Biso   1.000  Ag
  C25      1.0000 0.00580  0.25490  0.40780  Biso   1.000  C
  H49      1.0000 0.00950  0.28970  0.42350  Biso   1.000  H
  H50      1.0000 0.00960  0.25360  0.35000  Biso   1.000  H
  C26      1.0000 0.83080  0.22750  0.54490  Biso   1.000  C
  H51      1.0000 0.72800  0.20890  0.57170  Biso   1.000  H
  H52      1.0000 0.82900  0.26140  0.56480  Biso   1.000  H
  C27      1.0000 0.82850  0.16350  0.41810  Biso   1.000  C
  H53      1.0000 0.82660  0.15840  0.36070  Biso   1.000  H
  H54      1.0000 0.72570  0.14250  0.44020  Biso   1.000  H
  C28      1.0000 0.18340  0.23230  0.52860  Biso   1.000  C
  H55      1.0000 0.17640  0.26690  0.54490  Biso   1.000  H
  H56      1.0000 0.30900  0.21890  0.54920  Biso   1.000  H
  C29      1.0000 0.02960  0.15430  0.53700  Biso   1.000  C
  H57      1.0000 0.91880  0.13630  0.55920  Biso   1.000  H
  H58      1.0000 0.15170  0.13910  0.55760  Biso   1.000  H
  C30      1.0000 0.17960  0.17700  0.41860  Biso   1.000  C
  H59      1.0000 0.30550  0.16210  0.43570  Biso   1.000  H
  H60      1.0000 0.16970  0.17460  0.36080  Biso   1.000  H
  C31      1.0000 0.24730  0.36730  0.36010  Biso   1.000  C
  H61      1.0000 0.13580  0.34610  0.34410  Biso   1.000  H
  H62      1.0000 0.24800  0.36990  0.41790  Biso   1.000  H
  C32      1.0000 0.44140  0.45496  0.34350  Biso   1.000  C
  H63      1.0000 0.45110  0.46060  0.40070  Biso   1.000  H
  H64      1.0000 0.45050  0.48710  0.31720  Biso   1.000  H
  C33      1.0000 0.24600  0.41300  0.21720  Biso   1.000  C
  H65      1.0000 0.24690  0.44360  0.18620  Biso   1.000  H
  H66      1.0000 0.13640  0.39260  0.19700  Biso   1.000  H
  C34      1.0000 0.60590  0.37620  0.35980  Biso   1.000  C
  H67      1.0000 0.72830  0.35870  0.34790  Biso   1.000  H
  H68      1.0000 0.60580  0.38180  0.41700  Biso   1.000  H
  C35      1.0000 0.43330  0.33950  0.24730  Biso   1.000  C
  H69      1.0000 0.31820  0.32040  0.22900  Biso   1.000  H
  H70      1.0000 0.55150  0.32130  0.23230  Biso   1.000  H
  C36      1.0000 0.60070  0.41600  0.23440  Biso   1.000  C
  H71      1.0000 0.59710  0.44810  0.20780  Biso   1.000  H
  H72      1.0000 0.72220  0.39920  0.21950  Biso   1.000  H
  N13      1.0000 0.18190  0.23007  0.44120  Biso   1.000  N
  N14      1.0000 0.02300  0.20535  0.56440  Biso   1.000  N
  N15      1.0000 0.02100  0.14860  0.45150  Biso   1.000  N
  N16      1.0000 0.43150  0.34292  0.33700  Biso   1.000  N
  N17      1.0000 0.60680  0.42393  0.32000  Biso   1.000  N
  N18      1.0000 0.43110  0.38666  0.20640  Biso   1.000  N
  P5       1.0000 0.77430  0.22794  0.43912  Biso   1.000  P
  P6       1.0000 0.20660  0.42777  0.31902  Biso   1.000  P
  Ag5      1.0000 0.47801  0.26206  0.38529  Biso   1.000  Ag
  Ag6      1.0000 0.91786  0.46736  0.34894  Biso   1.000  Ag
  C37      1.0000 0.99420  0.75490  0.09220  Biso   1.000  C
  H73      1.0000 0.99050  0.78970  0.07650  Biso   1.000  H
  H74      1.0000 0.99040  0.75360  0.15000  Biso   1.000  H
  C38      1.0000 0.16920  0.72750  0.95510  Biso   1.000  C
  H75      1.0000 0.27200  0.70890  0.92830  Biso   1.000  H
  H76      1.0000 0.17100  0.76140  0.93520  Biso   1.000  H
  C39      1.0000 0.17150  0.66350  0.08190  Biso   1.000  C
  H77      1.0000 0.17340  0.65840  0.13930  Biso   1.000  H
  H78      1.0000 0.27430  0.64250  0.05980  Biso   1.000  H
  C40      1.0000 0.81660  0.73230  0.97140  Biso   1.000  C
  H79      1.0000 0.82360  0.76690  0.95510  Biso   1.000  H
  H80      1.0000 0.69100  0.71890  0.95080  Biso   1.000  H
  C41      1.0000 0.97040  0.65430  0.96300  Biso   1.000  C
  H81      1.0000 0.08120  0.63630  0.94080  Biso   1.000  H
  H82      1.0000 0.84830  0.63910  0.94240  Biso   1.000  H
  C42      1.0000 0.82040  0.67700  0.08140  Biso   1.000  C
  H83      1.0000 0.69450  0.66210  0.06430  Biso   1.000  H
  H84      1.0000 0.83030  0.67460  0.13920  Biso   1.000  H
  C43      1.0000 0.75270  0.86730  0.13990  Biso   1.000  C
  H85      1.0000 0.86420  0.84610  0.15590  Biso   1.000  H
  H86      1.0000 0.75200  0.86990  0.08210  Biso   1.000  H
  C44      1.0000 0.55860  0.95496  0.15650  Biso   1.000  C
  H87      1.0000 0.54890  0.96060  0.09930  Biso   1.000  H
  H88      1.0000 0.54950  0.98710  0.18280  Biso   1.000  H
  C45      1.0000 0.75400  0.91300  0.28280  Biso   1.000  C
  H89      1.0000 0.75310  0.94360  0.31380  Biso   1.000  H
  H90      1.0000 0.86360  0.89260  0.30300  Biso   1.000  H
  C46      1.0000 0.39410  0.87620  0.14020  Biso   1.000  C
  H91      1.0000 0.27170  0.85870  0.15210  Biso   1.000  H
  H92      1.0000 0.39420  0.88180  0.08300  Biso   1.000  H
  C47      1.0000 0.56670  0.83950  0.25270  Biso   1.000  C
  H93      1.0000 0.68180  0.82040  0.27100  Biso   1.000  H
  H94      1.0000 0.44850  0.82130  0.26770  Biso   1.000  H
  C48      1.0000 0.39930  0.91600  0.26560  Biso   1.000  C
  H95      1.0000 0.40290  0.94810  0.29220  Biso   1.000  H
  H96      1.0000 0.27780  0.89920  0.28050  Biso   1.000  H
  N19      1.0000 0.81810  0.73007  0.05880  Biso   1.000  N
  N20      1.0000 0.97700  0.70535  0.93560  Biso   1.000  N
  N21      1.0000 0.97900  0.64860  0.04850  Biso   1.000  N
  N22      1.0000 0.56850  0.84292  0.16300  Biso   1.000  N
  N23      1.0000 0.39320  0.92393  0.18000  Biso   1.000  N
  N24      1.0000 0.56890  0.88666  0.29360  Biso   1.000  N
  P7       1.0000 0.22570  0.72794  0.06088  Biso   1.000  P
  P8       1.0000 0.79340  0.92777  0.18098  Biso   1.000  P
  Ag7      1.0000 0.52199  0.76206  0.11471  Biso   1.000  Ag
  Ag8      1.0000 0.08214  0.96736  0.15106  Biso   1.000  Ag
  C49      1.0000 0.56880  0.40399  0.73210  Biso   1.000  C
  C50      1.0000 0.48400  0.42090  0.79930  Biso   1.000  C
  H97      1.0000 0.35090  0.41360  0.80820  Biso   1.000  H
  C51      1.0000 0.58930  0.44850  0.85420  Biso   1.000  C
  H98      1.0000 0.52750  0.46050  0.89940  Biso   1.000  H
  C52      1.0000 0.78490  0.45830  0.84280  Biso   1.000  C
  H99      1.0000 0.85820  0.47660  0.88060  Biso   1.000  H
  C53      1.0000 0.87240  0.44160  0.77670  Biso   1.000  C
  H100     1.0000 0.00650  0.44840  0.76910  Biso   1.000  H
  C54      1.0000 0.76730  0.41480  0.72090  Biso   1.000  C
  H101     1.0000 0.82910  0.40380  0.67510  Biso   1.000  H
  C55      1.0000 0.54780  0.29090  0.73070  Biso   1.000  C
  C56      1.0000 0.53740  0.32340  0.65850  Biso   1.000  C
  H102     1.0000 0.45770  0.30660  0.61740  Biso   1.000  H
  H103     1.0000 0.67100  0.32710  0.63860  Biso   1.000  H
  C57      1.0000 0.30360  0.44440  0.58680  Biso   1.000  C
  C58      1.0000 0.43470  0.39990  0.59120  Biso   1.000  C
  H104     1.0000 0.56730  0.40980  0.57590  Biso   1.000  H
  H105     1.0000 0.38580  0.37580  0.55220  Biso   1.000  H
  C59      1.0000 0.45140  0.37458  0.67110  Biso   1.000  C
  H106     1.0000 0.31630  0.37040  0.69080  Biso   1.000  H
  O1       1.0000 0.39230  0.28170  0.76460  Biso   1.000  O
  O2       1.0000 0.71340  0.27414  0.75270  Biso   1.000  O
  O3       1.0000 0.23510  0.46111  0.64810  Biso   1.000  O
  O4       1.0000 0.27130  0.46185  0.51880  Biso   1.000  O
  C60      1.0000 0.43120  0.90399  0.76790  Biso   1.000  C
  C61      1.0000 0.51600  0.92090  0.70070  Biso   1.000  C
  H107     1.0000 0.64910  0.91360  0.69180  Biso   1.000  H
  C62      1.0000 0.41070  0.94850  0.64580  Biso   1.000  C
  H108     1.0000 0.47250  0.96050  0.60060  Biso   1.000  H
  C63      1.0000 0.21510  0.95830  0.65720  Biso   1.000  C
  H109     1.0000 0.14180  0.97660  0.61940  Biso   1.000  H
  C64      1.0000 0.12760  0.94160  0.72330  Biso   1.000  C
  H110     1.0000 0.99350  0.94840  0.73090  Biso   1.000  H
  C65      1.0000 0.23270  0.91480  0.77910  Biso   1.000  C
  H111     1.0000 0.17090  0.90380  0.82490  Biso   1.000  H
  C66      1.0000 0.45220  0.79090  0.76930  Biso   1.000  C
  C67      1.0000 0.46260  0.82340  0.84150  Biso   1.000  C
  H112     1.0000 0.54230  0.80660  0.88260  Biso   1.000  H
  H113     1.0000 0.32900  0.82710  0.86140  Biso   1.000  H
  C68      1.0000 0.69640  0.94440  0.91320  Biso   1.000  C
  C69      1.0000 0.56530  0.89990  0.90880  Biso   1.000  C
  H114     1.0000 0.43270  0.90980  0.92410  Biso   1.000  H
  H115     1.0000 0.61420  0.87580  0.94780  Biso   1.000  H
  C70      1.0000 0.54860  0.87458  0.82890  Biso   1.000  C
  H116     1.0000 0.68370  0.87040  0.80920  Biso   1.000  H
  O5       1.0000 0.60770  0.78170  0.73540  Biso   1.000  O
  O6       1.0000 0.28660  0.77414  0.74730  Biso   1.000  O
  O7       1.0000 0.76490  0.96111  0.85190  Biso   1.000  O
  O8       1.0000 0.72870  0.96185  0.98120  Biso   1.000  O
  C71      1.0000 0.43120  0.59601  0.26790  Biso   1.000  C
  C72      1.0000 0.51600  0.57910  0.20070  Biso   1.000  C
  H117     1.0000 0.64910  0.58640  0.19180  Biso   1.000  H
  C73      1.0000 0.41070  0.55150  0.14580  Biso   1.000  C
  H118     1.0000 0.47250  0.53950  0.10060  Biso   1.000  H
  C74      1.0000 0.21510  0.54170  0.15720  Biso   1.000  C
  H119     1.0000 0.14180  0.52340  0.11940  Biso   1.000  H
  C75      1.0000 0.12760  0.55840  0.22330  Biso   1.000  C
  H120     1.0000 0.99350  0.55160  0.23090  Biso   1.000  H
  C76      1.0000 0.23270  0.58520  0.27910  Biso   1.000  C
  H121     1.0000 0.17090  0.59620  0.32490  Biso   1.000  H
  C77      1.0000 0.45220  0.70910  0.26930  Biso   1.000  C
  C78      1.0000 0.46260  0.67660  0.34150  Biso   1.000  C
  H122     1.0000 0.54230  0.69340  0.38260  Biso   1.000  H
  H123     1.0000 0.32900  0.67290  0.36140  Biso   1.000  H
  C79      1.0000 0.69640  0.55560  0.41320  Biso   1.000  C
  C80      1.0000 0.56530  0.60010  0.40880  Biso   1.000  C
  H124     1.0000 0.43270  0.59020  0.42410  Biso   1.000  H
  H125     1.0000 0.61420  0.62420  0.44780  Biso   1.000  H
  C81      1.0000 0.54860  0.62542  0.32890  Biso   1.000  C
  H126     1.0000 0.68370  0.62960  0.30920  Biso   1.000  H
  O9       1.0000 0.60770  0.71830  0.23540  Biso   1.000  O
  O10      1.0000 0.28660  0.72586  0.24730  Biso   1.000  O
  O11      1.0000 0.76490  0.53889  0.35190  Biso   1.000  O
  O12      1.0000 0.72870  0.53815  0.48120  Biso   1.000  O
  C82      1.0000 0.56880  0.09601  0.23210  Biso   1.000  C
  C83      1.0000 0.48400  0.07910  0.29930  Biso   1.000  C
  H127     1.0000 0.35090  0.08640  0.30820  Biso   1.000  H
  C84      1.0000 0.58930  0.05150  0.35420  Biso   1.000  C
  H128     1.0000 0.52750  0.03950  0.39940  Biso   1.000  H
  C85      1.0000 0.78490  0.04170  0.34280  Biso   1.000  C
  H129     1.0000 0.85820  0.02340  0.38060  Biso   1.000  H
  C86      1.0000 0.87240  0.05840  0.27670  Biso   1.000  C
  H130     1.0000 0.00650  0.05160  0.26910  Biso   1.000  H
  C87      1.0000 0.76730  0.08520  0.22090  Biso   1.000  C
  H131     1.0000 0.82910  0.09620  0.17510  Biso   1.000  H
  C88      1.0000 0.54780  0.20910  0.23070  Biso   1.000  C
  C89      1.0000 0.53740  0.17660  0.15850  Biso   1.000  C
  H132     1.0000 0.45770  0.19340  0.11740  Biso   1.000  H
  H133     1.0000 0.67100  0.17290  0.13860  Biso   1.000  H
  C90      1.0000 0.30360  0.05560  0.08680  Biso   1.000  C
  C91      1.0000 0.43470  0.10010  0.09120  Biso   1.000  C
  H134     1.0000 0.56730  0.09020  0.07590  Biso   1.000  H
  H135     1.0000 0.38580  0.12420  0.05220  Biso   1.000  H
  C92      1.0000 0.45140  0.12542  0.17110  Biso   1.000  C
  H136     1.0000 0.31630  0.12960  0.19080  Biso   1.000  H
  O13      1.0000 0.39230  0.21830  0.26460  Biso   1.000  O
  O14      1.0000 0.71340  0.22586  0.25270  Biso   1.000  O
  O15      1.0000 0.23510  0.03889  0.14810  Biso   1.000  O
  O16      1.0000 0.27130  0.03815  0.01880  Biso   1.000  O
