data_image0
_cell_length_a       9.4417
_cell_length_b       10.1533
_cell_length_c       10.8475
_cell_angle_alpha    95.6
_cell_angle_beta     108.985
_cell_angle_gamma    94.336

_symmetry_space_group_name_H-M    "P 1"
_symmetry_int_tables_number       1

loop_
  _symmetry_equiv_pos_as_xyz
  'x, y, z'

loop_
  _atom_site_label
  _atom_site_occupancy
  _atom_site_fract_x
  _atom_site_fract_y
  _atom_site_fract_z
  _atom_site_thermal_displace_type
  _atom_site_B_iso_or_equiv
  _atom_site_type_symbol
  Co1      1.0000 0.40827  0.51811  0.78236  Biso   1.000  Co
  O1       1.0000 0.35860  0.22760  0.71930  Biso   1.000  O
  O2       1.0000 0.52820  0.37775  0.86717  Biso   1.000  O
  O3       1.0000 0.01010  0.19990  0.13970  Biso   1.000  O
  N1       1.0000 0.21920  0.48500  0.82630  Biso   1.000  N
  N2       1.0000 0.20570  0.40400  0.91500  Biso   1.000  N
  H1       1.0000 0.28060  0.37440  0.97010  Biso   1.000  H
  C1       1.0000 0.47530  0.25860  0.81440  Biso   1.000  C
  C2       1.0000 0.06130  0.37550  0.90640  Biso   1.000  C
  H2       1.0000 0.02650  0.32240  0.95810  Biso   1.000  H
  O4       1.0000 0.98410  0.98530  0.16870  Biso   1.000  O
  C3       1.0000 0.97390  0.43920  0.80690  Biso   1.000  C
  C4       1.0000 0.56250  0.14770  0.87250  Biso   1.000  C
  C5       1.0000 0.70550  0.17120  0.96460  Biso   1.000  C
  H3       1.0000 0.75160  0.25800  0.99380  Biso   1.000  H
  C6       1.0000 0.07850  0.50590  0.76040  Biso   1.000  C
  H4       1.0000 0.05270  0.55800  0.69230  Biso   1.000  H
  C7       1.0000 0.80410  0.43640  0.75910  Biso   1.000  C
  H5       1.0000 0.75900  0.34500  0.74730  Biso   1.000  H
  H6       1.0000 0.77470  0.48620  0.82610  Biso   1.000  H
  C8       1.0000 0.78130  0.06390  0.01420  Biso   1.000  C
  C9       1.0000 0.93640  0.09250  0.11380  Biso   1.000  C
  C10      1.0000 0.71250  0.93480  0.97050  Biso   1.000  C
  H7       1.0000 0.76300  0.86380  0.00320  Biso   1.000  H
  C11      1.0000 0.56730  0.91050  0.87760  Biso   1.000  C
  C12      1.0000 0.49370  0.01740  0.82910  Biso   1.000  C
  H8       1.0000 0.39740  0.00190  0.76690  Biso   1.000  H
  C13      1.0000 0.49010  0.77200  0.83060  Biso   1.000  C
  O5       1.0000 0.56310  0.67441  0.87343  Biso   1.000  O
  O6       1.0000 0.35950  0.75100  0.75102  Biso   1.000  O
  C14      1.0000 0.74390  0.49330  0.63350  Biso   1.000  C
  C15      1.0000 0.68500  0.42580  0.50690  Biso   1.000  C
  H9       1.0000 0.67130  0.33350  0.48740  Biso   1.000  H
  C16      1.0000 0.74280  0.62700  0.61570  Biso   1.000  C
  H10      1.0000 0.77530  0.69950  0.68140  Biso   1.000  H
  N3       1.0000 0.65030  0.50950  0.41640  Biso   1.000  N
  N4       1.0000 0.68610  0.63170  0.48560  Biso   1.000  N
  H11      1.0000 0.67400  0.70440  0.45070  Biso   1.000  H
  H12      1.0000 0.08000  0.00200  0.22700  Biso   1.000  H
  Co2      1.0000 0.59173  0.48189  0.21764  Biso   1.000  Co
  O7       1.0000 0.64140  0.77240  0.28070  Biso   1.000  O
  O8       1.0000 0.47180  0.62225  0.13283  Biso   1.000  O
  O9       1.0000 0.98990  0.80010  0.86030  Biso   1.000  O
  N5       1.0000 0.78080  0.51500  0.17370  Biso   1.000  N
  N6       1.0000 0.79430  0.59600  0.08500  Biso   1.000  N
  H13      1.0000 0.71940  0.62560  0.02990  Biso   1.000  H
  C17      1.0000 0.52470  0.74140  0.18560  Biso   1.000  C
  C18      1.0000 0.93870  0.62450  0.09360  Biso   1.000  C
  H14      1.0000 0.97350  0.67760  0.04190  Biso   1.000  H
  O10      1.0000 0.01590  0.01470  0.83130  Biso   1.000  O
  C19      1.0000 0.02610  0.56080  0.19310  Biso   1.000  C
  C20      1.0000 0.43750  0.85230  0.12750  Biso   1.000  C
  C21      1.0000 0.29450  0.82880  0.03540  Biso   1.000  C
  H15      1.0000 0.24840  0.74200  0.00620  Biso   1.000  H
  C22      1.0000 0.92150  0.49410  0.23960  Biso   1.000  C
  H16      1.0000 0.94730  0.44200  0.30770  Biso   1.000  H
  C23      1.0000 0.19590  0.56360  0.24090  Biso   1.000  C
  H17      1.0000 0.24100  0.65500  0.25270  Biso   1.000  H
  H18      1.0000 0.22530  0.51380  0.17390  Biso   1.000  H
  C24      1.0000 0.21870  0.93610  0.98580  Biso   1.000  C
  C25      1.0000 0.06360  0.90750  0.88620  Biso   1.000  C
  C26      1.0000 0.28750  0.06520  0.02950  Biso   1.000  C
  H19      1.0000 0.23700  0.13620  0.99680  Biso   1.000  H
  C27      1.0000 0.43270  0.08950  0.12240  Biso   1.000  C
  C28      1.0000 0.50630  0.98260  0.17090  Biso   1.000  C
  H20      1.0000 0.60260  0.99810  0.23310  Biso   1.000  H
  C29      1.0000 0.50990  0.22800  0.16940  Biso   1.000  C
  O11      1.0000 0.43690  0.32559  0.12657  Biso   1.000  O
  O12      1.0000 0.64050  0.24900  0.24898  Biso   1.000  O
  C30      1.0000 0.25610  0.50670  0.36650  Biso   1.000  C
  C31      1.0000 0.31500  0.57420  0.49310  Biso   1.000  C
  H21      1.0000 0.32870  0.66650  0.51260  Biso   1.000  H
  C32      1.0000 0.25720  0.37300  0.38430  Biso   1.000  C
  H22      1.0000 0.22470  0.30050  0.31860  Biso   1.000  H
  N7       1.0000 0.34970  0.49050  0.58360  Biso   1.000  N
  N8       1.0000 0.31390  0.36830  0.51440  Biso   1.000  N
  H23      1.0000 0.32600  0.29560  0.54930  Biso   1.000  H
  H24      1.0000 0.92000  0.99800  0.77300  Biso   1.000  H
