data_image0
_cell_length_a       12.7248
_cell_length_b       14.3433
_cell_length_c       14.7081
_cell_angle_alpha    72.936
_cell_angle_beta     81.38
_cell_angle_gamma    71.364

_symmetry_space_group_name_H-M    "P 1"
_symmetry_int_tables_number       1

loop_
  _symmetry_equiv_pos_as_xyz
  'x, y, z'

loop_
  _atom_site_label
  _atom_site_occupancy
  _atom_site_fract_x
  _atom_site_fract_y
  _atom_site_fract_z
  _atom_site_thermal_displace_type
  _atom_site_B_iso_or_equiv
  _atom_site_type_symbol
  Ru1      1.0000 0.73281  0.68555  0.76367  Biso   1.000  Ru
  N1       1.0000 0.69500  0.81090  0.64830  Biso   1.000  N
  N2       1.0000 0.78590  0.61740  0.65320  Biso   1.000  N
  N3       1.0000 0.76590  0.55030  0.86880  Biso   1.000  N
  N4       1.0000 0.58510  0.65140  0.77330  Biso   1.000  N
  N5       1.0000 0.68910  0.76470  0.86700  Biso   1.000  N
  N6       1.0000 0.88000  0.71780  0.76630  Biso   1.000  N
  N7       1.0000 0.48280  0.29470  0.59570  Biso   1.000  N
  N8       1.0000 0.00820  0.15440  0.62000  Biso   1.000  N
  C1       1.0000 0.56040  0.27290  0.52700  Biso   1.000  C
  H1       1.0000 0.58270  0.32720  0.48240  Biso   1.000  H
  C2       1.0000 0.61000  0.17460  0.51780  Biso   1.000  C
  H2       1.0000 0.66480  0.16260  0.46770  Biso   1.000  H
  C3       1.0000 0.45500  0.21710  0.65840  Biso   1.000  C
  H3       1.0000 0.40100  0.23140  0.70840  Biso   1.000  H
  C4       1.0000 0.50050  0.11620  0.65480  Biso   1.000  C
  H4       1.0000 0.47840  0.06300  0.70130  Biso   1.000  H
  C5       1.0000 0.57960  0.09500  0.58100  Biso   1.000  C
  C6       1.0000 0.62820  0.98960  0.57220  Biso   1.000  C
  C7       1.0000 0.66050  0.96780  0.48310  Biso   1.000  C
  H5       1.0000 0.64960  0.02170  0.42630  Biso   1.000  H
  C8       1.0000 0.64950  0.90770  0.65200  Biso   1.000  C
  H6       1.0000 0.63070  0.92100  0.71290  Biso   1.000  H
  C9       1.0000 0.70730  0.86960  0.47830  Biso   1.000  C
  H7       1.0000 0.72880  0.85490  0.41810  Biso   1.000  H
  C10      1.0000 0.72360  0.79100  0.56140  Biso   1.000  C
  C11      1.0000 0.77230  0.68260  0.56370  Biso   1.000  C
  C12      1.0000 0.80280  0.64620  0.48390  Biso   1.000  C
  H8       1.0000 0.79350  0.69220  0.42230  Biso   1.000  H
  C13      1.0000 0.84720  0.54210  0.49400  Biso   1.000  C
  H9       1.0000 0.86700  0.51660  0.43910  Biso   1.000  H
  C14      1.0000 0.86240  0.47580  0.58330  Biso   1.000  C
  C15      1.0000 0.83000  0.51720  0.66030  Biso   1.000  C
  H10      1.0000 0.83940  0.47190  0.72230  Biso   1.000  H
  C16      1.0000 0.91020  0.36320  0.59780  Biso   1.000  C
  C17      1.0000 0.89360  0.31570  0.53450  Biso   1.000  C
  H11      1.0000 0.84770  0.35320  0.48270  Biso   1.000  H
  C18      1.0000 0.94540  0.21160  0.54820  Biso   1.000  C
  H12      1.0000 0.93500  0.17980  0.50340  Biso   1.000  H
  C19      1.0000 0.02020  0.19940  0.68300  Biso   1.000  C
  H13      1.0000 0.06270  0.15900  0.73630  Biso   1.000  H
  C20      1.0000 0.97350  0.30280  0.67450  Biso   1.000  C
  H14      1.0000 0.98470  0.33220  0.72100  Biso   1.000  H
  C21      1.0000 0.85730  0.50070  0.91700  Biso   1.000  C
  H15      1.0000 0.91460  0.53250  0.90760  Biso   1.000  H
  C22      1.0000 0.87250  0.40470  0.98020  Biso   1.000  C
  H16      1.0000 0.93980  0.37150  0.01150  Biso   1.000  H
  C23      1.0000 0.79060  0.35820  0.99730  Biso   1.000  C
  H17      1.0000 0.80020  0.29310  0.04120  Biso   1.000  H
  C24      1.0000 0.69170  0.40740  0.94940  Biso   1.000  C
  C25      1.0000 0.68330  0.50430  0.88610  Biso   1.000  C
  C26      1.0000 0.58540  0.55900  0.83490  Biso   1.000  C
  C27      1.0000 0.49560  0.51730  0.85000  Biso   1.000  C
  C28      1.0000 0.50590  0.41980  0.91480  Biso   1.000  C
  H18      1.0000 0.44610  0.39100  0.92500  Biso   1.000  H
  C29      1.0000 0.59930  0.36710  0.96260  Biso   1.000  C
  H19      1.0000 0.60360  0.30220  0.00560  Biso   1.000  H
  C30      1.0000 0.40170  0.57700  0.79920  Biso   1.000  C
  H20      1.0000 0.33830  0.55340  0.80700  Biso   1.000  H
  C31      1.0000 0.40160  0.66970  0.73820  Biso   1.000  C
  H21      1.0000 0.33790  0.71030  0.70370  Biso   1.000  H
  C32      1.0000 0.49400  0.70480  0.72620  Biso   1.000  C
  H22      1.0000 0.49210  0.76920  0.68300  Biso   1.000  H
  C33      1.0000 0.59190  0.78850  0.91650  Biso   1.000  C
  H23      1.0000 0.53250  0.76800  0.90450  Biso   1.000  H
  C34      1.0000 0.57430  0.84200  0.98480  Biso   1.000  C
  H24      1.0000 0.50460  0.85560  0.01990  Biso   1.000  H
  C35      1.0000 0.65780  0.87570  0.00210  Biso   1.000  C
  H25      1.0000 0.64610  0.91260  0.04870  Biso   1.000  H
  C36      1.0000 0.75910  0.85460  0.95030  Biso   1.000  C
  C37      1.0000 0.77270  0.79840  0.88380  Biso   1.000  C
  C38      1.0000 0.87490  0.77340  0.82830  Biso   1.000  C
  C39      1.0000 0.85200  0.88810  0.95980  Biso   1.000  C
  H26      1.0000 0.84560  0.92580  0.00480  Biso   1.000  H
  C40      1.0000 0.94770  0.86660  0.90550  Biso   1.000  C
  H27      1.0000 0.00660  0.89080  0.91250  Biso   1.000  H
  C41      1.0000 0.96300  0.80830  0.83790  Biso   1.000  C
  C42      1.0000 0.05820  0.78400  0.77990  Biso   1.000  C
  H28      1.0000 0.11940  0.80720  0.78270  Biso   1.000  H
  C43      1.0000 0.06430  0.72710  0.71930  Biso   1.000  C
  H29      1.0000 0.13060  0.70940  0.68060  Biso   1.000  H
  C44      1.0000 0.97420  0.69440  0.71320  Biso   1.000  C
  H30      1.0000 0.98000  0.65450  0.67030  Biso   1.000  H
  Ru2      1.0000 0.26719  0.31445  0.23633  Biso   1.000  Ru
  N9       1.0000 0.30500  0.18910  0.35170  Biso   1.000  N
  N10      1.0000 0.21410  0.38260  0.34680  Biso   1.000  N
  N11      1.0000 0.23410  0.44970  0.13120  Biso   1.000  N
  N12      1.0000 0.41490  0.34860  0.22670  Biso   1.000  N
  N13      1.0000 0.31090  0.23530  0.13300  Biso   1.000  N
  N14      1.0000 0.12000  0.28220  0.23370  Biso   1.000  N
  N15      1.0000 0.51720  0.70530  0.40430  Biso   1.000  N
  N16      1.0000 0.99180  0.84560  0.38000  Biso   1.000  N
  C45      1.0000 0.43960  0.72710  0.47300  Biso   1.000  C
  H31      1.0000 0.41730  0.67280  0.51760  Biso   1.000  H
  C46      1.0000 0.39000  0.82540  0.48220  Biso   1.000  C
  H32      1.0000 0.33520  0.83740  0.53230  Biso   1.000  H
  C47      1.0000 0.54500  0.78290  0.34160  Biso   1.000  C
  H33      1.0000 0.59900  0.76860  0.29160  Biso   1.000  H
  C48      1.0000 0.49950  0.88380  0.34520  Biso   1.000  C
  H34      1.0000 0.52160  0.93700  0.29870  Biso   1.000  H
  C49      1.0000 0.42040  0.90500  0.41900  Biso   1.000  C
  C50      1.0000 0.37180  0.01040  0.42780  Biso   1.000  C
  C51      1.0000 0.33950  0.03220  0.51690  Biso   1.000  C
  H35      1.0000 0.35040  0.97830  0.57370  Biso   1.000  H
  C52      1.0000 0.35050  0.09230  0.34800  Biso   1.000  C
  H36      1.0000 0.36930  0.07900  0.28710  Biso   1.000  H
  C53      1.0000 0.29270  0.13040  0.52170  Biso   1.000  C
  H37      1.0000 0.27120  0.14510  0.58190  Biso   1.000  H
  C54      1.0000 0.27640  0.20900  0.43860  Biso   1.000  C
  C55      1.0000 0.22770  0.31740  0.43630  Biso   1.000  C
  C56      1.0000 0.19720  0.35380  0.51610  Biso   1.000  C
  H38      1.0000 0.20650  0.30780  0.57770  Biso   1.000  H
  C57      1.0000 0.15280  0.45790  0.50600  Biso   1.000  C
  H39      1.0000 0.13300  0.48340  0.56090  Biso   1.000  H
  C58      1.0000 0.13760  0.52420  0.41670  Biso   1.000  C
  C59      1.0000 0.17000  0.48280  0.33970  Biso   1.000  C
  H40      1.0000 0.16060  0.52810  0.27770  Biso   1.000  H
  C60      1.0000 0.08980  0.63680  0.40220  Biso   1.000  C
  C61      1.0000 0.10640  0.68430  0.46550  Biso   1.000  C
  H41      1.0000 0.15230  0.64680  0.51730  Biso   1.000  H
  C62      1.0000 0.05460  0.78840  0.45180  Biso   1.000  C
  H42      1.0000 0.06500  0.82020  0.49660  Biso   1.000  H
  C63      1.0000 0.97980  0.80060  0.31700  Biso   1.000  C
  H43      1.0000 0.93730  0.84100  0.26370  Biso   1.000  H
  C64      1.0000 0.02650  0.69720  0.32550  Biso   1.000  C
  H44      1.0000 0.01530  0.66780  0.27900  Biso   1.000  H
  C65      1.0000 0.14270  0.49930  0.08300  Biso   1.000  C
  H45      1.0000 0.08540  0.46750  0.09240  Biso   1.000  H
  C66      1.0000 0.12750  0.59530  0.01980  Biso   1.000  C
  H46      1.0000 0.06020  0.62850  0.98850  Biso   1.000  H
  C67      1.0000 0.20940  0.64180  0.00270  Biso   1.000  C
  H47      1.0000 0.19980  0.70690  0.95880  Biso   1.000  H
  C68      1.0000 0.30830  0.59260  0.05060  Biso   1.000  C
  C69      1.0000 0.31670  0.49570  0.11390  Biso   1.000  C
  C70      1.0000 0.41460  0.44100  0.16510  Biso   1.000  C
  C71      1.0000 0.50440  0.48270  0.15000  Biso   1.000  C
  C72      1.0000 0.49410  0.58020  0.08520  Biso   1.000  C
  H48      1.0000 0.55390  0.60900  0.07500  Biso   1.000  H
  C73      1.0000 0.40070  0.63290  0.03740  Biso   1.000  C
  H49      1.0000 0.39640  0.69780  0.99440  Biso   1.000  H
  C74      1.0000 0.59830  0.42300  0.20080  Biso   1.000  C
  H50      1.0000 0.66170  0.44660  0.19300  Biso   1.000  H
  C75      1.0000 0.59840  0.33030  0.26180  Biso   1.000  C
  H51      1.0000 0.66210  0.28970  0.29630  Biso   1.000  H
  C76      1.0000 0.50600  0.29520  0.27380  Biso   1.000  C
  H52      1.0000 0.50790  0.23080  0.31700  Biso   1.000  H
  C77      1.0000 0.40810  0.21150  0.08350  Biso   1.000  C
  H53      1.0000 0.46750  0.23200  0.09550  Biso   1.000  H
  C78      1.0000 0.42570  0.15800  0.01520  Biso   1.000  C
  H54      1.0000 0.49540  0.14440  0.98010  Biso   1.000  H
  C79      1.0000 0.34220  0.12430  0.99790  Biso   1.000  C
  H55      1.0000 0.35390  0.08740  0.95130  Biso   1.000  H
  C80      1.0000 0.24090  0.14540  0.04970  Biso   1.000  C
  C81      1.0000 0.22730  0.20160  0.11620  Biso   1.000  C
  C82      1.0000 0.12510  0.22660  0.17170  Biso   1.000  C
  C83      1.0000 0.14800  0.11190  0.04020  Biso   1.000  C
  H56      1.0000 0.15440  0.07420  0.99520  Biso   1.000  H
  C84      1.0000 0.05230  0.13340  0.09450  Biso   1.000  C
  H57      1.0000 0.99340  0.10920  0.08750  Biso   1.000  H
  C85      1.0000 0.03700  0.19170  0.16210  Biso   1.000  C
  C86      1.0000 0.94180  0.21600  0.22010  Biso   1.000  C
  H58      1.0000 0.88060  0.19280  0.21730  Biso   1.000  H
  C87      1.0000 0.93570  0.27290  0.28070  Biso   1.000  C
  H59      1.0000 0.86940  0.29060  0.31940  Biso   1.000  H
  C88      1.0000 0.02580  0.30560  0.28680  Biso   1.000  C
  H60      1.0000 0.02000  0.34550  0.32970  Biso   1.000  H
