data_image0
_cell_length_a       11.351
_cell_length_b       17.596
_cell_length_c       8.701
_cell_angle_alpha    90
_cell_angle_beta     115.431
_cell_angle_gamma    90

_symmetry_space_group_name_H-M    "P 1"
_symmetry_int_tables_number       1

loop_
  _symmetry_equiv_pos_as_xyz
  'x, y, z'

loop_
  _atom_site_label
  _atom_site_occupancy
  _atom_site_fract_x
  _atom_site_fract_y
  _atom_site_fract_z
  _atom_site_thermal_displace_type
  _atom_site_B_iso_or_equiv
  _atom_site_type_symbol
  La1      1.0000 0.32928  0.29579  0.20304  Biso   1.000  La
  P1       1.0000 0.52359  0.27932  0.70349  Biso   1.000  P
  P2       1.0000 0.17989  0.20953  0.75713  Biso   1.000  P
  P3       1.0000 0.48253  0.11508  0.41905  Biso   1.000  P
  O1       1.0000 0.27650  0.23965  0.92490  Biso   1.000  O
  N1       1.0000 0.34840  0.15921  0.61970  Biso   1.000  N
  H1       1.0000 0.31160  0.20290  0.55140  Biso   1.000  H
  O2       1.0000 0.44290  0.28793  0.51590  Biso   1.000  O
  O3       1.0000 0.61390  0.14218  0.54400  Biso   1.000  O
  O4       1.0000 0.49000  0.03192  0.35420  Biso   1.000  O
  H2       1.0000 0.55760  0.00080  0.44160  Biso   1.000  H
  O5       1.0000 0.40780  0.16236  0.26450  Biso   1.000  O
  O6       1.0000 0.33650  0.42496  0.34190  Biso   1.000  O
  H3       1.0000 0.27980  0.46210  0.25430  Biso   1.000  H
  H4       1.0000 0.27770  0.41030  0.39580  Biso   1.000  H
  O7       1.0000 0.15360  0.26897  0.61140  Biso   1.000  O
  H5       1.0000 0.16900  0.31670  0.63130  Biso   1.000  H
  C1       1.0000 0.46730  0.19210  0.76360  Biso   1.000  C
  H6       1.0000 0.53850  0.15400  0.80100  Biso   1.000  H
  H7       1.0000 0.44670  0.20280  0.86110  Biso   1.000  H
  C2       1.0000 0.37980  0.09458  0.52970  Biso   1.000  C
  H8       1.0000 0.29630  0.07330  0.44530  Biso   1.000  H
  H9       1.0000 0.42340  0.05430  0.61470  Biso   1.000  H
  O8       1.0000 0.67000  0.27618  0.76930  Biso   1.000  O
  O9       1.0000 0.05510  0.17836  0.75020  Biso   1.000  O
  C3       1.0000 0.24940  0.13188  0.68300  Biso   1.000  C
  H10      1.0000 0.29250  0.09540  0.77730  Biso   1.000  H
  H11      1.0000 0.17810  0.10470  0.58960  Biso   1.000  H
  O10      1.0000 0.48700  0.34371  0.80350  Biso   1.000  O
  H12      1.0000 0.54280  0.37350  0.77270  Biso   1.000  H
  La2      1.0000 0.82928  0.20421  0.70304  Biso   1.000  La
  P4       1.0000 0.02359  0.22068  0.20349  Biso   1.000  P
  P5       1.0000 0.67989  0.29047  0.25713  Biso   1.000  P
  P6       1.0000 0.98253  0.38492  0.91905  Biso   1.000  P
  O11      1.0000 0.77650  0.26035  0.42490  Biso   1.000  O
  N2       1.0000 0.84840  0.34079  0.11970  Biso   1.000  N
  H13      1.0000 0.81160  0.29710  0.05140  Biso   1.000  H
  O12      1.0000 0.94290  0.21207  0.01590  Biso   1.000  O
  O13      1.0000 0.11390  0.35782  0.04400  Biso   1.000  O
  O14      1.0000 0.99000  0.46808  0.85420  Biso   1.000  O
  H14      1.0000 0.05760  0.49920  0.94160  Biso   1.000  H
  O15      1.0000 0.90780  0.33764  0.76450  Biso   1.000  O
  O16      1.0000 0.83650  0.07504  0.84190  Biso   1.000  O
  H15      1.0000 0.77980  0.03790  0.75430  Biso   1.000  H
  H16      1.0000 0.77770  0.08970  0.89580  Biso   1.000  H
  O17      1.0000 0.65360  0.23103  0.11140  Biso   1.000  O
  H17      1.0000 0.66900  0.18330  0.13130  Biso   1.000  H
  C4       1.0000 0.96730  0.30790  0.26360  Biso   1.000  C
  H18      1.0000 0.03850  0.34600  0.30100  Biso   1.000  H
  H19      1.0000 0.94670  0.29720  0.36110  Biso   1.000  H
  C5       1.0000 0.87980  0.40542  0.02970  Biso   1.000  C
  H20      1.0000 0.79630  0.42670  0.94530  Biso   1.000  H
  H21      1.0000 0.92340  0.44570  0.11470  Biso   1.000  H
  O18      1.0000 0.17000  0.22382  0.26930  Biso   1.000  O
  O19      1.0000 0.55510  0.32164  0.25020  Biso   1.000  O
  C6       1.0000 0.74940  0.36812  0.18300  Biso   1.000  C
  H22      1.0000 0.79250  0.40460  0.27730  Biso   1.000  H
  H23      1.0000 0.67810  0.39530  0.08960  Biso   1.000  H
  O20      1.0000 0.98700  0.15629  0.30350  Biso   1.000  O
  H24      1.0000 0.04280  0.12650  0.27270  Biso   1.000  H
  La3      1.0000 0.82928  0.79579  0.20304  Biso   1.000  La
  P7       1.0000 0.02359  0.77932  0.70349  Biso   1.000  P
  P8       1.0000 0.67989  0.70953  0.75713  Biso   1.000  P
  P9       1.0000 0.98253  0.61508  0.41905  Biso   1.000  P
  O21      1.0000 0.77650  0.73965  0.92490  Biso   1.000  O
  N3       1.0000 0.84840  0.65921  0.61970  Biso   1.000  N
  H25      1.0000 0.81160  0.70290  0.55140  Biso   1.000  H
  O22      1.0000 0.94290  0.78793  0.51590  Biso   1.000  O
  O23      1.0000 0.11390  0.64218  0.54400  Biso   1.000  O
  O24      1.0000 0.99000  0.53192  0.35420  Biso   1.000  O
  H26      1.0000 0.05760  0.50080  0.44160  Biso   1.000  H
  O25      1.0000 0.90780  0.66236  0.26450  Biso   1.000  O
  O26      1.0000 0.83650  0.92496  0.34190  Biso   1.000  O
  H27      1.0000 0.77980  0.96210  0.25430  Biso   1.000  H
  H28      1.0000 0.77770  0.91030  0.39580  Biso   1.000  H
  O27      1.0000 0.65360  0.76897  0.61140  Biso   1.000  O
  H29      1.0000 0.66900  0.81670  0.63130  Biso   1.000  H
  C7       1.0000 0.96730  0.69210  0.76360  Biso   1.000  C
  H30      1.0000 0.03850  0.65400  0.80100  Biso   1.000  H
  H31      1.0000 0.94670  0.70280  0.86110  Biso   1.000  H
  C8       1.0000 0.87980  0.59458  0.52970  Biso   1.000  C
  H32      1.0000 0.79630  0.57330  0.44530  Biso   1.000  H
  H33      1.0000 0.92340  0.55430  0.61470  Biso   1.000  H
  O28      1.0000 0.17000  0.77618  0.76930  Biso   1.000  O
  O29      1.0000 0.55510  0.67836  0.75020  Biso   1.000  O
  C9       1.0000 0.74940  0.63188  0.68300  Biso   1.000  C
  H34      1.0000 0.79250  0.59540  0.77730  Biso   1.000  H
  H35      1.0000 0.67810  0.60470  0.58960  Biso   1.000  H
  O30      1.0000 0.98700  0.84371  0.80350  Biso   1.000  O
  H36      1.0000 0.04280  0.87350  0.77270  Biso   1.000  H
  La4      1.0000 0.32928  0.70421  0.70304  Biso   1.000  La
  P10      1.0000 0.52359  0.72068  0.20349  Biso   1.000  P
  P11      1.0000 0.17989  0.79047  0.25713  Biso   1.000  P
  P12      1.0000 0.48253  0.88492  0.91905  Biso   1.000  P
  O31      1.0000 0.27650  0.76035  0.42490  Biso   1.000  O
  N4       1.0000 0.34840  0.84079  0.11970  Biso   1.000  N
  H37      1.0000 0.31160  0.79710  0.05140  Biso   1.000  H
  O32      1.0000 0.44290  0.71207  0.01590  Biso   1.000  O
  O33      1.0000 0.61390  0.85782  0.04400  Biso   1.000  O
  O34      1.0000 0.49000  0.96808  0.85420  Biso   1.000  O
  H38      1.0000 0.55760  0.99920  0.94160  Biso   1.000  H
  O35      1.0000 0.40780  0.83764  0.76450  Biso   1.000  O
  O36      1.0000 0.33650  0.57504  0.84190  Biso   1.000  O
  H39      1.0000 0.27980  0.53790  0.75430  Biso   1.000  H
  H40      1.0000 0.27770  0.58970  0.89580  Biso   1.000  H
  O37      1.0000 0.15360  0.73103  0.11140  Biso   1.000  O
  H41      1.0000 0.16900  0.68330  0.13130  Biso   1.000  H
  C10      1.0000 0.46730  0.80790  0.26360  Biso   1.000  C
  H42      1.0000 0.53850  0.84600  0.30100  Biso   1.000  H
  H43      1.0000 0.44670  0.79720  0.36110  Biso   1.000  H
  C11      1.0000 0.37980  0.90542  0.02970  Biso   1.000  C
  H44      1.0000 0.29630  0.92670  0.94530  Biso   1.000  H
  H45      1.0000 0.42340  0.94570  0.11470  Biso   1.000  H
  O38      1.0000 0.67000  0.72382  0.26930  Biso   1.000  O
  O39      1.0000 0.05510  0.82164  0.25020  Biso   1.000  O
  C12      1.0000 0.24940  0.86812  0.18300  Biso   1.000  C
  H46      1.0000 0.29250  0.90460  0.27730  Biso   1.000  H
  H47      1.0000 0.17810  0.89530  0.08960  Biso   1.000  H
  O40      1.0000 0.48700  0.65629  0.30350  Biso   1.000  O
  H48      1.0000 0.54280  0.62650  0.27270  Biso   1.000  H
