data_image0
_cell_length_a       16.29
_cell_length_b       11.09
_cell_length_c       16.96
_cell_angle_alpha    90
_cell_angle_beta     109.86
_cell_angle_gamma    90

_symmetry_space_group_name_H-M    "P 1"
_symmetry_int_tables_number       1

loop_
  _symmetry_equiv_pos_as_xyz
  'x, y, z'

loop_
  _atom_site_label
  _atom_site_occupancy
  _atom_site_fract_x
  _atom_site_fract_y
  _atom_site_fract_z
  _atom_site_thermal_displace_type
  _atom_site_B_iso_or_equiv
  _atom_site_type_symbol
  Cu1      1.0000 0.53820  0.19890  0.69160  Biso   1.000  Cu
  Cu2      1.0000 0.57730  0.02440  0.81280  Biso   1.000  Cu
  I1       1.0000 0.64060  0.25740  0.84906  Biso   1.000  I
  I2       1.0000 0.57390  0.96550  0.65569  Biso   1.000  I
  Si1      1.0000 0.87490  0.67600  0.64500  Biso   1.000  Si
  Si2      1.0000 0.93600  0.56600  0.83310  Biso   1.000  Si
  O1       1.0000 0.88700  0.65300  0.74200  Biso   1.000  O
  O2       1.0000 0.95300  0.61900  0.62200  Biso   1.000  O
  C1       1.0000 0.84600  0.84500  0.62000  Biso   1.000  C
  H1       1.0000 0.79710  0.86720  0.63780  Biso   1.000  H
  H2       1.0000 0.89710  0.89490  0.65010  Biso   1.000  H
  H3       1.0000 0.83070  0.85860  0.55950  Biso   1.000  H
  C2       1.0000 0.91800  0.39000  0.82500  Biso   1.000  C
  H4       1.0000 0.94800  0.35250  0.87910  Biso   1.000  H
  H5       1.0000 0.85500  0.37210  0.80780  Biso   1.000  H
  H6       1.0000 0.94070  0.35720  0.78260  Biso   1.000  H
  C3       1.0000 0.78100  0.57900  0.58000  Biso   1.000  C
  H7       1.0000 0.77190  0.59450  0.52000  Biso   1.000  H
  H8       1.0000 0.79900  0.49310  0.59100  Biso   1.000  H
  C4       1.0000 0.69400  0.59600  0.59500  Biso   1.000  C
  H9       1.0000 0.66160  0.66470  0.56140  Biso   1.000  H
  H10      1.0000 0.70440  0.61200  0.65490  Biso   1.000  H
  C5       1.0000 0.64200  0.47200  0.56600  Biso   1.000  C
  C6       1.0000 0.62460  0.40400  0.62710  Biso   1.000  C
  H11      1.0000 0.65190  0.42380  0.68460  Biso   1.000  H
  N1       1.0000 0.56730  0.30700  0.60430  Biso   1.000  N
  C7       1.0000 0.52730  0.27800  0.52010  Biso   1.000  C
  H12      1.0000 0.48820  0.21180  0.50460  Biso   1.000  H
  C8       1.0000 0.54470  0.34600  0.45870  Biso   1.000  C
  H13      1.0000 0.51740  0.32620  0.40120  Biso   1.000  H
  C9       1.0000 0.60200  0.44300  0.48150  Biso   1.000  C
  H14      1.0000 0.61390  0.48950  0.43950  Biso   1.000  H
  C10      1.0000 0.85800  0.62000  0.89800  Biso   1.000  C
  H15      1.0000 0.79570  0.61200  0.86330  Biso   1.000  H
  H16      1.0000 0.86940  0.57150  0.94950  Biso   1.000  H
  C11      1.0000 0.88100  0.75500  0.92100  Biso   1.000  C
  H17      1.0000 0.88800  0.80040  0.87320  Biso   1.000  H
  H18      1.0000 0.93460  0.76350  0.97050  Biso   1.000  H
  C12      1.0000 0.79700  0.79600  0.94000  Biso   1.000  C
  C13      1.0000 0.73200  0.85800  0.87900  Biso   1.000  C
  H19      1.0000 0.72770  0.85400  0.82220  Biso   1.000  H
  N2       1.0000 0.67100  0.92500  0.90220  Biso   1.000  N
  C14      1.0000 0.67700  0.93100  0.98600  Biso   1.000  C
  H20      1.0000 0.63580  0.97710  0.00140  Biso   1.000  H
  C15      1.0000 0.74300  0.86900  0.04650  Biso   1.000  C
  H21      1.0000 0.74660  0.87280  0.10360  Biso   1.000  H
  C16      1.0000 0.80300  0.80100  0.02400  Biso   1.000  C
  H22      1.0000 0.84800  0.75900  0.06520  Biso   1.000  H
  Cu3      1.0000 0.46180  0.19890  0.80840  Biso   1.000  Cu
  Cu4      1.0000 0.42270  0.02440  0.68720  Biso   1.000  Cu
  I3       1.0000 0.35940  0.25740  0.65094  Biso   1.000  I
  I4       1.0000 0.42610  0.96550  0.84431  Biso   1.000  I
  Si3      1.0000 0.12510  0.67600  0.85500  Biso   1.000  Si
  Si4      1.0000 0.06400  0.56600  0.66690  Biso   1.000  Si
  O3       1.0000 0.11300  0.65300  0.75800  Biso   1.000  O
  O4       1.0000 0.04700  0.61900  0.87800  Biso   1.000  O
  C17      1.0000 0.15400  0.84500  0.88000  Biso   1.000  C
  H23      1.0000 0.20290  0.86720  0.86220  Biso   1.000  H
  H24      1.0000 0.10290  0.89490  0.84990  Biso   1.000  H
  H25      1.0000 0.16930  0.85860  0.94050  Biso   1.000  H
  C18      1.0000 0.08200  0.39000  0.67500  Biso   1.000  C
  H26      1.0000 0.05200  0.35250  0.62090  Biso   1.000  H
  H27      1.0000 0.14500  0.37210  0.69220  Biso   1.000  H
  H28      1.0000 0.05930  0.35720  0.71740  Biso   1.000  H
  C19      1.0000 0.21900  0.57900  0.92000  Biso   1.000  C
  H29      1.0000 0.22810  0.59450  0.98000  Biso   1.000  H
  H30      1.0000 0.20100  0.49310  0.90900  Biso   1.000  H
  C20      1.0000 0.30600  0.59600  0.90500  Biso   1.000  C
  H31      1.0000 0.33840  0.66470  0.93860  Biso   1.000  H
  H32      1.0000 0.29560  0.61200  0.84510  Biso   1.000  H
  C21      1.0000 0.35800  0.47200  0.93400  Biso   1.000  C
  C22      1.0000 0.37540  0.40400  0.87290  Biso   1.000  C
  H33      1.0000 0.34810  0.42380  0.81540  Biso   1.000  H
  N3       1.0000 0.43270  0.30700  0.89570  Biso   1.000  N
  C23      1.0000 0.47270  0.27800  0.97990  Biso   1.000  C
  H34      1.0000 0.51180  0.21180  0.99540  Biso   1.000  H
  C24      1.0000 0.45530  0.34600  0.04130  Biso   1.000  C
  H35      1.0000 0.48260  0.32620  0.09880  Biso   1.000  H
  C25      1.0000 0.39800  0.44300  0.01850  Biso   1.000  C
  H36      1.0000 0.38610  0.48950  0.06050  Biso   1.000  H
  C26      1.0000 0.14200  0.62000  0.60200  Biso   1.000  C
  H37      1.0000 0.20430  0.61200  0.63670  Biso   1.000  H
  H38      1.0000 0.13060  0.57150  0.55050  Biso   1.000  H
  C27      1.0000 0.11900  0.75500  0.57900  Biso   1.000  C
  H39      1.0000 0.11200  0.80040  0.62680  Biso   1.000  H
  H40      1.0000 0.06540  0.76350  0.52950  Biso   1.000  H
  C28      1.0000 0.20300  0.79600  0.56000  Biso   1.000  C
  C29      1.0000 0.26800  0.85800  0.62100  Biso   1.000  C
  H41      1.0000 0.27230  0.85400  0.67780  Biso   1.000  H
  N4       1.0000 0.32900  0.92500  0.59780  Biso   1.000  N
  C30      1.0000 0.32300  0.93100  0.51400  Biso   1.000  C
  H42      1.0000 0.36420  0.97710  0.49860  Biso   1.000  H
  C31      1.0000 0.25700  0.86900  0.45350  Biso   1.000  C
  H43      1.0000 0.25340  0.87280  0.39640  Biso   1.000  H
  C32      1.0000 0.19700  0.80100  0.47600  Biso   1.000  C
  H44      1.0000 0.15200  0.75900  0.43480  Biso   1.000  H
  Cu5      1.0000 0.46180  0.80110  0.30840  Biso   1.000  Cu
  Cu6      1.0000 0.42270  0.97560  0.18720  Biso   1.000  Cu
  I5       1.0000 0.35940  0.74260  0.15094  Biso   1.000  I
  I6       1.0000 0.42610  0.03450  0.34431  Biso   1.000  I
  Si5      1.0000 0.12510  0.32400  0.35500  Biso   1.000  Si
  Si6      1.0000 0.06400  0.43400  0.16690  Biso   1.000  Si
  O5       1.0000 0.11300  0.34700  0.25800  Biso   1.000  O
  O6       1.0000 0.04700  0.38100  0.37800  Biso   1.000  O
  C33      1.0000 0.15400  0.15500  0.38000  Biso   1.000  C
  H45      1.0000 0.20290  0.13280  0.36220  Biso   1.000  H
  H46      1.0000 0.10290  0.10510  0.34990  Biso   1.000  H
  H47      1.0000 0.16930  0.14140  0.44050  Biso   1.000  H
  C34      1.0000 0.08200  0.61000  0.17500  Biso   1.000  C
  H48      1.0000 0.05200  0.64750  0.12090  Biso   1.000  H
  H49      1.0000 0.14500  0.62790  0.19220  Biso   1.000  H
  H50      1.0000 0.05930  0.64280  0.21740  Biso   1.000  H
  C35      1.0000 0.21900  0.42100  0.42000  Biso   1.000  C
  H51      1.0000 0.22810  0.40550  0.48000  Biso   1.000  H
  H52      1.0000 0.20100  0.50690  0.40900  Biso   1.000  H
  C36      1.0000 0.30600  0.40400  0.40500  Biso   1.000  C
  H53      1.0000 0.33840  0.33530  0.43860  Biso   1.000  H
  H54      1.0000 0.29560  0.38800  0.34510  Biso   1.000  H
  C37      1.0000 0.35800  0.52800  0.43400  Biso   1.000  C
  C38      1.0000 0.37540  0.59600  0.37290  Biso   1.000  C
  H55      1.0000 0.34810  0.57620  0.31540  Biso   1.000  H
  N5       1.0000 0.43270  0.69300  0.39570  Biso   1.000  N
  C39      1.0000 0.47270  0.72200  0.47990  Biso   1.000  C
  H56      1.0000 0.51180  0.78820  0.49540  Biso   1.000  H
  C40      1.0000 0.45530  0.65400  0.54130  Biso   1.000  C
  H57      1.0000 0.48260  0.67380  0.59880  Biso   1.000  H
  C41      1.0000 0.39800  0.55700  0.51850  Biso   1.000  C
  H58      1.0000 0.38610  0.51050  0.56050  Biso   1.000  H
  C42      1.0000 0.14200  0.38000  0.10200  Biso   1.000  C
  H59      1.0000 0.20430  0.38800  0.13670  Biso   1.000  H
  H60      1.0000 0.13060  0.42850  0.05050  Biso   1.000  H
  C43      1.0000 0.11900  0.24500  0.07900  Biso   1.000  C
  H61      1.0000 0.11200  0.19960  0.12680  Biso   1.000  H
  H62      1.0000 0.06540  0.23650  0.02950  Biso   1.000  H
  C44      1.0000 0.20300  0.20400  0.06000  Biso   1.000  C
  C45      1.0000 0.26800  0.14200  0.12100  Biso   1.000  C
  H63      1.0000 0.27230  0.14600  0.17780  Biso   1.000  H
  N6       1.0000 0.32900  0.07500  0.09780  Biso   1.000  N
  C46      1.0000 0.32300  0.06900  0.01400  Biso   1.000  C
  H64      1.0000 0.36420  0.02290  0.99860  Biso   1.000  H
  C47      1.0000 0.25700  0.13100  0.95350  Biso   1.000  C
  H65      1.0000 0.25340  0.12720  0.89640  Biso   1.000  H
  C48      1.0000 0.19700  0.19900  0.97600  Biso   1.000  C
  H66      1.0000 0.15200  0.24100  0.93480  Biso   1.000  H
  Cu7      1.0000 0.53820  0.80110  0.19160  Biso   1.000  Cu
  Cu8      1.0000 0.57730  0.97560  0.31280  Biso   1.000  Cu
  I7       1.0000 0.64060  0.74260  0.34906  Biso   1.000  I
  I8       1.0000 0.57390  0.03450  0.15569  Biso   1.000  I
  Si7      1.0000 0.87490  0.32400  0.14500  Biso   1.000  Si
  Si8      1.0000 0.93600  0.43400  0.33310  Biso   1.000  Si
  O7       1.0000 0.88700  0.34700  0.24200  Biso   1.000  O
  O8       1.0000 0.95300  0.38100  0.12200  Biso   1.000  O
  C49      1.0000 0.84600  0.15500  0.12000  Biso   1.000  C
  H67      1.0000 0.79710  0.13280  0.13780  Biso   1.000  H
  H68      1.0000 0.89710  0.10510  0.15010  Biso   1.000  H
  H69      1.0000 0.83070  0.14140  0.05950  Biso   1.000  H
  C50      1.0000 0.91800  0.61000  0.32500  Biso   1.000  C
  H70      1.0000 0.94800  0.64750  0.37910  Biso   1.000  H
  H71      1.0000 0.85500  0.62790  0.30780  Biso   1.000  H
  H72      1.0000 0.94070  0.64280  0.28260  Biso   1.000  H
  C51      1.0000 0.78100  0.42100  0.08000  Biso   1.000  C
  H73      1.0000 0.77190  0.40550  0.02000  Biso   1.000  H
  H74      1.0000 0.79900  0.50690  0.09100  Biso   1.000  H
  C52      1.0000 0.69400  0.40400  0.09500  Biso   1.000  C
  H75      1.0000 0.66160  0.33530  0.06140  Biso   1.000  H
  H76      1.0000 0.70440  0.38800  0.15490  Biso   1.000  H
  C53      1.0000 0.64200  0.52800  0.06600  Biso   1.000  C
  C54      1.0000 0.62460  0.59600  0.12710  Biso   1.000  C
  H77      1.0000 0.65190  0.57620  0.18460  Biso   1.000  H
  N7       1.0000 0.56730  0.69300  0.10430  Biso   1.000  N
  C55      1.0000 0.52730  0.72200  0.02010  Biso   1.000  C
  H78      1.0000 0.48820  0.78820  0.00460  Biso   1.000  H
  C56      1.0000 0.54470  0.65400  0.95870  Biso   1.000  C
  H79      1.0000 0.51740  0.67380  0.90120  Biso   1.000  H
  C57      1.0000 0.60200  0.55700  0.98150  Biso   1.000  C
  H80      1.0000 0.61390  0.51050  0.93950  Biso   1.000  H
  C58      1.0000 0.85800  0.38000  0.39800  Biso   1.000  C
  H81      1.0000 0.79570  0.38800  0.36330  Biso   1.000  H
  H82      1.0000 0.86940  0.42850  0.44950  Biso   1.000  H
  C59      1.0000 0.88100  0.24500  0.42100  Biso   1.000  C
  H83      1.0000 0.88800  0.19960  0.37320  Biso   1.000  H
  H84      1.0000 0.93460  0.23650  0.47050  Biso   1.000  H
  C60      1.0000 0.79700  0.20400  0.44000  Biso   1.000  C
  C61      1.0000 0.73200  0.14200  0.37900  Biso   1.000  C
  H85      1.0000 0.72770  0.14600  0.32220  Biso   1.000  H
  N8       1.0000 0.67100  0.07500  0.40220  Biso   1.000  N
  C62      1.0000 0.67700  0.06900  0.48600  Biso   1.000  C
  H86      1.0000 0.63580  0.02290  0.50140  Biso   1.000  H
  C63      1.0000 0.74300  0.13100  0.54650  Biso   1.000  C
  H87      1.0000 0.74660  0.12720  0.60360  Biso   1.000  H
  C64      1.0000 0.80300  0.19900  0.52400  Biso   1.000  C
  H88      1.0000 0.84800  0.24100  0.56520  Biso   1.000  H
