data_image0
_cell_length_a       11.44
_cell_length_b       14.71
_cell_length_c       14.99
_cell_angle_alpha    76.03
_cell_angle_beta     78.88
_cell_angle_gamma    86.64

_symmetry_space_group_name_H-M    "P 1"
_symmetry_int_tables_number       1

loop_
  _symmetry_equiv_pos_as_xyz
  'x, y, z'

loop_
  _atom_site_label
  _atom_site_occupancy
  _atom_site_fract_x
  _atom_site_fract_y
  _atom_site_fract_z
  _atom_site_thermal_displace_type
  _atom_site_B_iso_or_equiv
  _atom_site_type_symbol
  Ru1      1.0000 0.35399  0.66977  0.74402  Biso   1.000  Ru
  N1       1.0000 0.23150  0.63710  0.86750  Biso   1.000  N
  N2       1.0000 0.43570  0.55550  0.81870  Biso   1.000  N
  N3       1.0000 0.28240  0.58360  0.67830  Biso   1.000  N
  N4       1.0000 0.47480  0.68950  0.61870  Biso   1.000  N
  N5       1.0000 0.26370  0.78880  0.68640  Biso   1.000  N
  N6       1.0000 0.42880  0.76840  0.79290  Biso   1.000  N
  N7       1.0000 0.06630  0.19810  0.64950  Biso   1.000  N
  C1       1.0000 0.12830  0.68370  0.88680  Biso   1.000  C
  H1       1.0000 0.10750  0.73540  0.84050  Biso   1.000  H
  C2       1.0000 0.05210  0.65850  0.97150  Biso   1.000  C
  H2       1.0000 0.97880  0.69130  0.98240  Biso   1.000  H
  C3       1.0000 0.08220  0.58580  0.04050  Biso   1.000  C
  H3       1.0000 0.03200  0.56960  0.10030  Biso   1.000  H
  C4       1.0000 0.18830  0.53630  0.02080  Biso   1.000  C
  H4       1.0000 0.21010  0.48410  0.06610  Biso   1.000  H
  C5       1.0000 0.26100  0.56430  0.93430  Biso   1.000  C
  C6       1.0000 0.37430  0.51600  0.90570  Biso   1.000  C
  C7       1.0000 0.41680  0.43680  0.96160  Biso   1.000  C
  H5       1.0000 0.37400  0.41080  0.02260  Biso   1.000  H
  C8       1.0000 0.52230  0.39620  0.92750  Biso   1.000  C
  H6       1.0000 0.55240  0.34150  0.96480  Biso   1.000  H
  C9       1.0000 0.58480  0.43530  0.83810  Biso   1.000  C
  C10      1.0000 0.53890  0.51570  0.78710  Biso   1.000  C
  H7       1.0000 0.58220  0.54410  0.72700  Biso   1.000  H
  C11      1.0000 0.69120  0.39070  0.79840  Biso   1.000  C
  C12      1.0000 0.77620  0.35190  0.76470  Biso   1.000  C
  C13      1.0000 0.87560  0.30070  0.72540  Biso   1.000  C
  C14      1.0000 0.93310  0.23260  0.78320  Biso   1.000  C
  H8       1.0000 0.90990  0.22060  0.84930  Biso   1.000  H
  C15      1.0000 0.02600  0.18210  0.74210  Biso   1.000  C
  H9       1.0000 0.06310  0.13350  0.78190  Biso   1.000  H
  C16      1.0000 0.01210  0.26560  0.59500  Biso   1.000  C
  H10      1.0000 0.03960  0.27820  0.52930  Biso   1.000  H
  C17      1.0000 0.91760  0.31860  0.62930  Biso   1.000  C
  H11      1.0000 0.88180  0.36640  0.58780  Biso   1.000  H
  C18      1.0000 0.19000  0.52660  0.71120  Biso   1.000  C
  H12      1.0000 0.15020  0.52130  0.77400  Biso   1.000  H
  C19      1.0000 0.14880  0.47420  0.65790  Biso   1.000  C
  H13      1.0000 0.08350  0.43340  0.68490  Biso   1.000  H
  C20      1.0000 0.20250  0.48150  0.56640  Biso   1.000  C
  H14      1.0000 0.17360  0.44740  0.52900  Biso   1.000  H
  C21      1.0000 0.30270  0.54130  0.52870  Biso   1.000  C
  C22      1.0000 0.33920  0.58990  0.58830  Biso   1.000  C
  C23      1.0000 0.44230  0.64670  0.55640  Biso   1.000  C
  C24      1.0000 0.50720  0.65630  0.46500  Biso   1.000  C
  C25      1.0000 0.46550  0.60880  0.40430  Biso   1.000  C
  H15      1.0000 0.50690  0.61580  0.34170  Biso   1.000  H
  C26      1.0000 0.36690  0.55340  0.43540  Biso   1.000  C
  H16      1.0000 0.34090  0.52250  0.39400  Biso   1.000  H
  C27      1.0000 0.61180  0.70920  0.43950  Biso   1.000  C
  H17      1.0000 0.65890  0.71680  0.37860  Biso   1.000  H
  C28      1.0000 0.64420  0.74920  0.50300  Biso   1.000  C
  H18      1.0000 0.71520  0.78470  0.48630  Biso   1.000  H
  C29      1.0000 0.57570  0.73970  0.59310  Biso   1.000  C
  H19      1.0000 0.60050  0.76890  0.63620  Biso   1.000  H
  C30      1.0000 0.18010  0.79750  0.63410  Biso   1.000  C
  H20      1.0000 0.15830  0.74390  0.61650  Biso   1.000  H
  C31      1.0000 0.12260  0.88420  0.60410  Biso   1.000  C
  H21      1.0000 0.06240  0.88790  0.56760  Biso   1.000  H
  C32      1.0000 0.15350  0.96270  0.62750  Biso   1.000  C
  H22      1.0000 0.11560  0.02120  0.60700  Biso   1.000  H
  C33      1.0000 0.24100  0.95580  0.68170  Biso   1.000  C
  C34      1.0000 0.29330  0.86700  0.71040  Biso   1.000  C
  C35      1.0000 0.38220  0.85590  0.76730  Biso   1.000  C
  C36      1.0000 0.41870  0.93360  0.79420  Biso   1.000  C
  C37      1.0000 0.36440  0.02220  0.76520  Biso   1.000  C
  H23      1.0000 0.38750  0.07470  0.78390  Biso   1.000  H
  C38      1.0000 0.28000  0.03310  0.71100  Biso   1.000  C
  H24      1.0000 0.24570  0.09350  0.69200  Biso   1.000  H
  C39      1.0000 0.50920  0.91710  0.85000  Biso   1.000  C
  H25      1.0000 0.53700  0.96690  0.87020  Biso   1.000  H
  C40      1.0000 0.55540  0.82860  0.87400  Biso   1.000  C
  H26      1.0000 0.61490  0.81670  0.91180  Biso   1.000  H
  C41      1.0000 0.51550  0.75610  0.84320  Biso   1.000  C
  H27      1.0000 0.55110  0.69570  0.85840  Biso   1.000  H
  Ru2      1.0000 0.64601  0.33023  0.25598  Biso   1.000  Ru
  N8       1.0000 0.76850  0.36290  0.13250  Biso   1.000  N
  N9       1.0000 0.56430  0.44450  0.18130  Biso   1.000  N
  N10      1.0000 0.71760  0.41640  0.32170  Biso   1.000  N
  N11      1.0000 0.52520  0.31050  0.38130  Biso   1.000  N
  N12      1.0000 0.73630  0.21120  0.31360  Biso   1.000  N
  N13      1.0000 0.57120  0.23160  0.20710  Biso   1.000  N
  N14      1.0000 0.93370  0.80190  0.35050  Biso   1.000  N
  C42      1.0000 0.87170  0.31630  0.11320  Biso   1.000  C
  H28      1.0000 0.89250  0.26460  0.15950  Biso   1.000  H
  C43      1.0000 0.94790  0.34150  0.02850  Biso   1.000  C
  H29      1.0000 0.02120  0.30870  0.01760  Biso   1.000  H
  C44      1.0000 0.91780  0.41420  0.95950  Biso   1.000  C
  H30      1.0000 0.96800  0.43040  0.89970  Biso   1.000  H
  C45      1.0000 0.81170  0.46370  0.97920  Biso   1.000  C
  H31      1.0000 0.78990  0.51590  0.93390  Biso   1.000  H
  C46      1.0000 0.73900  0.43570  0.06570  Biso   1.000  C
  C47      1.0000 0.62570  0.48400  0.09430  Biso   1.000  C
  C48      1.0000 0.58320  0.56320  0.03840  Biso   1.000  C
  H32      1.0000 0.62600  0.58920  0.97740  Biso   1.000  H
  C49      1.0000 0.47770  0.60380  0.07250  Biso   1.000  C
  H33      1.0000 0.44760  0.65850  0.03520  Biso   1.000  H
  C50      1.0000 0.41520  0.56470  0.16190  Biso   1.000  C
  C51      1.0000 0.46110  0.48430  0.21290  Biso   1.000  C
  H34      1.0000 0.41780  0.45590  0.27300  Biso   1.000  H
  C52      1.0000 0.30880  0.60930  0.20160  Biso   1.000  C
  C53      1.0000 0.22380  0.64810  0.23530  Biso   1.000  C
  C54      1.0000 0.12440  0.69930  0.27460  Biso   1.000  C
  C55      1.0000 0.06690  0.76740  0.21680  Biso   1.000  C
  H35      1.0000 0.09010  0.77940  0.15070  Biso   1.000  H
  C56      1.0000 0.97400  0.81790  0.25790  Biso   1.000  C
  H36      1.0000 0.93690  0.86650  0.21810  Biso   1.000  H
  C57      1.0000 0.98790  0.73440  0.40500  Biso   1.000  C
  H37      1.0000 0.96040  0.72180  0.47070  Biso   1.000  H
  C58      1.0000 0.08240  0.68140  0.37070  Biso   1.000  C
  H38      1.0000 0.11820  0.63360  0.41220  Biso   1.000  H
  C59      1.0000 0.81000  0.47340  0.28880  Biso   1.000  C
  H39      1.0000 0.84980  0.47870  0.22600  Biso   1.000  H
  C60      1.0000 0.85120  0.52580  0.34210  Biso   1.000  C
  H40      1.0000 0.91650  0.56660  0.31510  Biso   1.000  H
  C61      1.0000 0.79750  0.51850  0.43360  Biso   1.000  C
  H41      1.0000 0.82640  0.55260  0.47100  Biso   1.000  H
  C62      1.0000 0.69730  0.45870  0.47130  Biso   1.000  C
  C63      1.0000 0.66080  0.41010  0.41170  Biso   1.000  C
  C64      1.0000 0.55770  0.35330  0.44360  Biso   1.000  C
  C65      1.0000 0.49280  0.34370  0.53500  Biso   1.000  C
  C66      1.0000 0.53450  0.39120  0.59570  Biso   1.000  C
  H42      1.0000 0.49310  0.38420  0.65830  Biso   1.000  H
  C67      1.0000 0.63310  0.44660  0.56460  Biso   1.000  C
  H43      1.0000 0.65910  0.47750  0.60600  Biso   1.000  H
  C68      1.0000 0.38820  0.29080  0.56050  Biso   1.000  C
  H44      1.0000 0.34110  0.28320  0.62140  Biso   1.000  H
  C69      1.0000 0.35580  0.25080  0.49700  Biso   1.000  C
  H45      1.0000 0.28480  0.21530  0.51370  Biso   1.000  H
  C70      1.0000 0.42430  0.26030  0.40690  Biso   1.000  C
  H46      1.0000 0.39950  0.23110  0.36380  Biso   1.000  H
  C71      1.0000 0.81990  0.20250  0.36590  Biso   1.000  C
  H47      1.0000 0.84170  0.25610  0.38350  Biso   1.000  H
  C72      1.0000 0.87740  0.11580  0.39590  Biso   1.000  C
  H48      1.0000 0.93760  0.11210  0.43240  Biso   1.000  H
  C73      1.0000 0.84650  0.03730  0.37250  Biso   1.000  C
  H49      1.0000 0.88440  0.97880  0.39300  Biso   1.000  H
  C74      1.0000 0.75900  0.04420  0.31830  Biso   1.000  C
  C75      1.0000 0.70670  0.13300  0.28960  Biso   1.000  C
  C76      1.0000 0.61780  0.14410  0.23270  Biso   1.000  C
  C77      1.0000 0.58130  0.06640  0.20580  Biso   1.000  C
  C78      1.0000 0.63560  0.97780  0.23480  Biso   1.000  C
  H50      1.0000 0.61250  0.92530  0.21610  Biso   1.000  H
  C79      1.0000 0.72000  0.96690  0.28900  Biso   1.000  C
  H51      1.0000 0.75430  0.90650  0.30800  Biso   1.000  H
  C80      1.0000 0.49080  0.08290  0.15000  Biso   1.000  C
  H52      1.0000 0.46300  0.03310  0.12980  Biso   1.000  H
  C81      1.0000 0.44460  0.17140  0.12600  Biso   1.000  C
  H53      1.0000 0.38510  0.18330  0.08820  Biso   1.000  H
  C82      1.0000 0.48450  0.24390  0.15680  Biso   1.000  C
  H54      1.0000 0.44890  0.30430  0.14160  Biso   1.000  H
