data_image0
_cell_length_a       10.253
_cell_length_b       12.9
_cell_length_c       20.009
_cell_angle_alpha    90
_cell_angle_beta     90.94
_cell_angle_gamma    90

_symmetry_space_group_name_H-M    "P 1"
_symmetry_int_tables_number       1

loop_
  _symmetry_equiv_pos_as_xyz
  'x, y, z'

loop_
  _atom_site_label
  _atom_site_occupancy
  _atom_site_fract_x
  _atom_site_fract_y
  _atom_site_fract_z
  _atom_site_thermal_displace_type
  _atom_site_B_iso_or_equiv
  _atom_site_type_symbol
  Zn1      1.0000 0.00297  0.85400  0.01239  Biso   1.000  Zn
  Cl1      1.0000 0.10342  0.82166  0.91648  Biso   1.000  Cl
  Cl2      1.0000 0.96246  0.71533  0.07523  Biso   1.000  Cl
  O1       1.0000 0.11640  0.94850  0.06447  Biso   1.000  O
  O2       1.0000 0.17250  0.08660  0.00334  Biso   1.000  O
  N1       1.0000 0.70290  0.00200  0.16479  Biso   1.000  N
  C1       1.0000 0.19660  0.01500  0.04425  Biso   1.000  C
  C2       1.0000 0.33260  0.00980  0.07273  Biso   1.000  C
  C3       1.0000 0.42270  0.08670  0.05880  Biso   1.000  C
  H1       1.0000 0.40000  0.14010  0.02970  Biso   1.000  H
  C4       1.0000 0.54630  0.08470  0.08803  Biso   1.000  C
  H2       1.0000 0.60690  0.13650  0.07950  Biso   1.000  H
  C5       1.0000 0.57610  0.00350  0.12982  Biso   1.000  C
  C6       1.0000 0.49070  0.92440  0.14350  Biso   1.000  C
  H3       1.0000 0.51520  0.86980  0.17130  Biso   1.000  H
  C7       1.0000 0.36710  0.92850  0.11440  Biso   1.000  C
  H4       1.0000 0.30720  0.87630  0.12310  Biso   1.000  H
  C8       1.0000 0.78850  0.92620  0.15249  Biso   1.000  C
  H5       1.0000 0.76810  0.87520  0.12120  Biso   1.000  H
  C9       1.0000 0.90630  0.92390  0.18613  Biso   1.000  C
  H6       1.0000 0.96560  0.87100  0.17820  Biso   1.000  H
  C10      1.0000 0.93580  0.00100  0.23197  Biso   1.000  C
  C11      1.0000 0.84540  0.07770  0.24418  Biso   1.000  C
  H7       1.0000 0.86350  0.12920  0.27550  Biso   1.000  H
  C12      1.0000 0.72860  0.07730  0.20966  Biso   1.000  C
  H8       1.0000 0.66730  0.12900  0.21730  Biso   1.000  H
  Zn2      1.0000 0.99703  0.85400  0.48761  Biso   1.000  Zn
  Cl3      1.0000 0.89658  0.82166  0.58352  Biso   1.000  Cl
  Cl4      1.0000 0.03754  0.71533  0.42477  Biso   1.000  Cl
  O3       1.0000 0.88360  0.94850  0.43553  Biso   1.000  O
  O4       1.0000 0.82750  0.08660  0.49666  Biso   1.000  O
  N2       1.0000 0.29710  0.00200  0.33521  Biso   1.000  N
  C13      1.0000 0.80340  0.01500  0.45575  Biso   1.000  C
  C14      1.0000 0.66740  0.00980  0.42727  Biso   1.000  C
  C15      1.0000 0.57730  0.08670  0.44120  Biso   1.000  C
  H9       1.0000 0.60000  0.14010  0.47030  Biso   1.000  H
  C16      1.0000 0.45370  0.08470  0.41197  Biso   1.000  C
  H10      1.0000 0.39310  0.13650  0.42050  Biso   1.000  H
  C17      1.0000 0.42390  0.00350  0.37018  Biso   1.000  C
  C18      1.0000 0.50930  0.92440  0.35650  Biso   1.000  C
  H11      1.0000 0.48480  0.86980  0.32870  Biso   1.000  H
  C19      1.0000 0.63290  0.92850  0.38560  Biso   1.000  C
  H12      1.0000 0.69280  0.87630  0.37690  Biso   1.000  H
  C20      1.0000 0.21150  0.92620  0.34751  Biso   1.000  C
  H13      1.0000 0.23190  0.87520  0.37880  Biso   1.000  H
  C21      1.0000 0.09370  0.92390  0.31387  Biso   1.000  C
  H14      1.0000 0.03440  0.87100  0.32180  Biso   1.000  H
  C22      1.0000 0.06420  0.00100  0.26803  Biso   1.000  C
  C23      1.0000 0.15460  0.07770  0.25582  Biso   1.000  C
  H15      1.0000 0.13650  0.12920  0.22450  Biso   1.000  H
  C24      1.0000 0.27140  0.07730  0.29034  Biso   1.000  C
  H16      1.0000 0.33270  0.12900  0.28270  Biso   1.000  H
  Zn3      1.0000 0.99703  0.14600  0.98761  Biso   1.000  Zn
  Cl5      1.0000 0.89658  0.17834  0.08352  Biso   1.000  Cl
  Cl6      1.0000 0.03754  0.28467  0.92477  Biso   1.000  Cl
  O5       1.0000 0.88360  0.05150  0.93553  Biso   1.000  O
  O6       1.0000 0.82750  0.91340  0.99666  Biso   1.000  O
  N3       1.0000 0.29710  0.99800  0.83521  Biso   1.000  N
  C25      1.0000 0.80340  0.98500  0.95575  Biso   1.000  C
  C26      1.0000 0.66740  0.99020  0.92727  Biso   1.000  C
  C27      1.0000 0.57730  0.91330  0.94120  Biso   1.000  C
  H17      1.0000 0.60000  0.85990  0.97030  Biso   1.000  H
  C28      1.0000 0.45370  0.91530  0.91197  Biso   1.000  C
  H18      1.0000 0.39310  0.86350  0.92050  Biso   1.000  H
  C29      1.0000 0.42390  0.99650  0.87018  Biso   1.000  C
  C30      1.0000 0.50930  0.07560  0.85650  Biso   1.000  C
  H19      1.0000 0.48480  0.13020  0.82870  Biso   1.000  H
  C31      1.0000 0.63290  0.07150  0.88560  Biso   1.000  C
  H20      1.0000 0.69280  0.12370  0.87690  Biso   1.000  H
  C32      1.0000 0.21150  0.07380  0.84751  Biso   1.000  C
  H21      1.0000 0.23190  0.12480  0.87880  Biso   1.000  H
  C33      1.0000 0.09370  0.07610  0.81387  Biso   1.000  C
  H22      1.0000 0.03440  0.12900  0.82180  Biso   1.000  H
  C34      1.0000 0.06420  0.99900  0.76803  Biso   1.000  C
  C35      1.0000 0.15460  0.92230  0.75582  Biso   1.000  C
  H23      1.0000 0.13650  0.87080  0.72450  Biso   1.000  H
  C36      1.0000 0.27140  0.92270  0.79034  Biso   1.000  C
  H24      1.0000 0.33270  0.87100  0.78270  Biso   1.000  H
  Zn4      1.0000 0.00297  0.14600  0.51239  Biso   1.000  Zn
  Cl7      1.0000 0.10342  0.17834  0.41648  Biso   1.000  Cl
  Cl8      1.0000 0.96246  0.28467  0.57523  Biso   1.000  Cl
  O7       1.0000 0.11640  0.05150  0.56447  Biso   1.000  O
  O8       1.0000 0.17250  0.91340  0.50334  Biso   1.000  O
  N4       1.0000 0.70290  0.99800  0.66479  Biso   1.000  N
  C37      1.0000 0.19660  0.98500  0.54425  Biso   1.000  C
  C38      1.0000 0.33260  0.99020  0.57273  Biso   1.000  C
  C39      1.0000 0.42270  0.91330  0.55880  Biso   1.000  C
  H25      1.0000 0.40000  0.85990  0.52970  Biso   1.000  H
  C40      1.0000 0.54630  0.91530  0.58803  Biso   1.000  C
  H26      1.0000 0.60690  0.86350  0.57950  Biso   1.000  H
  C41      1.0000 0.57610  0.99650  0.62982  Biso   1.000  C
  C42      1.0000 0.49070  0.07560  0.64350  Biso   1.000  C
  H27      1.0000 0.51520  0.13020  0.67130  Biso   1.000  H
  C43      1.0000 0.36710  0.07150  0.61440  Biso   1.000  C
  H28      1.0000 0.30720  0.12370  0.62310  Biso   1.000  H
  C44      1.0000 0.78850  0.07380  0.65249  Biso   1.000  C
  H29      1.0000 0.76810  0.12480  0.62120  Biso   1.000  H
  C45      1.0000 0.90630  0.07610  0.68613  Biso   1.000  C
  H30      1.0000 0.96560  0.12900  0.67820  Biso   1.000  H
  C46      1.0000 0.93580  0.99900  0.73197  Biso   1.000  C
  C47      1.0000 0.84540  0.92230  0.74418  Biso   1.000  C
  H31      1.0000 0.86350  0.87080  0.77550  Biso   1.000  H
  C48      1.0000 0.72860  0.92270  0.70966  Biso   1.000  C
  H32      1.0000 0.66730  0.87100  0.71730  Biso   1.000  H
