data_image0
_cell_length_a       14.0785
_cell_length_b       14.2423
_cell_length_c       27.2243
_cell_angle_alpha    76.5
_cell_angle_beta     88.452
_cell_angle_gamma    74.831

_symmetry_space_group_name_H-M    "P 1"
_symmetry_int_tables_number       1

loop_
  _symmetry_equiv_pos_as_xyz
  'x, y, z'

loop_
  _atom_site_label
  _atom_site_occupancy
  _atom_site_fract_x
  _atom_site_fract_y
  _atom_site_fract_z
  _atom_site_thermal_displace_type
  _atom_site_B_iso_or_equiv
  _atom_site_type_symbol
  Ni1      1.0000 0.71949  0.20692  0.03341  Biso   1.000  Ni
  Ni2      1.0000 0.76083  0.06161  0.14226  Biso   1.000  Ni
  S1       1.0000 0.62533  0.07144  0.95405  Biso   1.000  S
  S2       1.0000 0.59898  0.11264  0.02209  Biso   1.000  S
  S3       1.0000 0.73409  0.93115  0.10227  Biso   1.000  S
  S4       1.0000 0.62156  0.87844  0.13992  Biso   1.000  S
  N1       1.0000 0.60990  0.32180  0.99387  Biso   1.000  N
  N2       1.0000 0.79200  0.17180  0.96982  Biso   1.000  N
  N3       1.0000 0.86490  0.93990  0.18415  Biso   1.000  N
  N4       1.0000 0.64790  0.04230  0.19185  Biso   1.000  N
  O1       1.0000 0.79490  0.30570  0.03688  Biso   1.000  O
  O2       1.0000 0.82990  0.09610  0.07512  Biso   1.000  O
  O3       1.0000 0.80530  0.14810  0.17937  Biso   1.000  O
  O4       1.0000 0.66090  0.18770  0.10400  Biso   1.000  O
  C1       1.0000 0.65770  0.17330  0.91410  Biso   1.000  C
  C2       1.0000 0.60110  0.21950  0.86940  Biso   1.000  C
  H1       1.0000 0.54540  0.19940  0.86380  Biso   1.000  H
  C3       1.0000 0.62550  0.29360  0.83350  Biso   1.000  C
  H2       1.0000 0.58670  0.32290  0.80400  Biso   1.000  H
  C4       1.0000 0.70690  0.32460  0.84120  Biso   1.000  C
  H3       1.0000 0.72380  0.37490  0.81690  Biso   1.000  H
  C5       1.0000 0.76400  0.28090  0.88510  Biso   1.000  C
  H4       1.0000 0.81940  0.30190  0.89020  Biso   1.000  H
  C6       1.0000 0.74000  0.20620  0.92180  Biso   1.000  C
  C7       1.0000 0.88640  0.14410  0.97060  Biso   1.000  C
  H5       1.0000 0.91530  0.14050  0.93970  Biso   1.000  H
  C8       1.0000 0.95220  0.11820  0.01380  Biso   1.000  C
  C9       1.0000 0.05170  0.11440  0.00460  Biso   1.000  C
  H6       1.0000 0.07160  0.12660  0.97130  Biso   1.000  H
  C10      1.0000 0.11940  0.09350  0.04270  Biso   1.000  C
  H7       1.0000 0.18460  0.09290  0.03580  Biso   1.000  H
  C11      1.0000 0.09060  0.07330  0.09170  Biso   1.000  C
  H8       1.0000 0.13680  0.05940  0.11790  Biso   1.000  H
  C12      1.0000 0.99490  0.07300  0.10280  Biso   1.000  C
  H9       1.0000 0.97780  0.05670  0.13640  Biso   1.000  H
  C13      1.0000 0.92300  0.09670  0.06440  Biso   1.000  C
  C14      1.0000 0.49790  0.21730  0.00610  Biso   1.000  C
  C15      1.0000 0.40370  0.20410  0.00640  Biso   1.000  C
  H10      1.0000 0.39520  0.13980  0.01510  Biso   1.000  H
  C16      1.0000 0.32250  0.28520  0.99400  Biso   1.000  C
  H11      1.0000 0.25960  0.27580  0.99390  Biso   1.000  H
  C17      1.0000 0.33570  0.38020  0.98180  Biso   1.000  C
  H12      1.0000 0.28150  0.43540  0.97360  Biso   1.000  H
  C18      1.0000 0.43020  0.39380  0.98170  Biso   1.000  C
  H13      1.0000 0.43850  0.45830  0.97400  Biso   1.000  H
  C19      1.0000 0.51180  0.31260  0.99291  Biso   1.000  C
  C20      1.0000 0.62970  0.39840  0.96440  Biso   1.000  C
  H14      1.0000 0.57860  0.44180  0.94290  Biso   1.000  H
  C21      1.0000 0.72280  0.42470  0.96100  Biso   1.000  C
  C22      1.0000 0.73510  0.50250  0.92120  Biso   1.000  C
  H15      1.0000 0.68380  0.53500  0.89740  Biso   1.000  H
  C23      1.0000 0.82080  0.53170  0.91650  Biso   1.000  C
  H16      1.0000 0.82760  0.58320  0.88970  Biso   1.000  H
  C24      1.0000 0.89630  0.48460  0.95140  Biso   1.000  C
  H17      1.0000 0.95480  0.50390  0.94790  Biso   1.000  H
  C25      1.0000 0.88690  0.41000  0.99110  Biso   1.000  C
  H18      1.0000 0.93890  0.38020  0.01480  Biso   1.000  H
  C26      1.0000 0.80000  0.37650  0.99760  Biso   1.000  C
  C27      1.0000 0.84040  0.83570  0.13020  Biso   1.000  C
  C28      1.0000 0.86480  0.74790  0.11340  Biso   1.000  C
  H19      1.0000 0.82530  0.73990  0.08860  Biso   1.000  H
  C29      1.0000 0.94710  0.67270  0.13300  Biso   1.000  C
  H20      1.0000 0.96340  0.61350  0.12210  Biso   1.000  H
  C30      1.0000 0.00420  0.68710  0.16890  Biso   1.000  C
  H21      1.0000 0.06010  0.63690  0.18230  Biso   1.000  H
  C31      1.0000 0.98090  0.77430  0.18550  Biso   1.000  C
  H22      1.0000 0.02230  0.78310  0.20910  Biso   1.000  H
  C32      1.0000 0.89550  0.84950  0.16730  Biso   1.000  C
  C33      1.0000 0.88920  0.94060  0.22990  Biso   1.000  C
  H23      1.0000 0.92570  0.87990  0.24950  Biso   1.000  H
  C34      1.0000 0.86680  0.02260  0.25370  Biso   1.000  C
  C35      1.0000 0.88900  0.00030  0.30590  Biso   1.000  C
  H24      1.0000 0.91920  0.93480  0.32280  Biso   1.000  H
  C36      1.0000 0.86700  0.07340  0.33190  Biso   1.000  C
  H25      1.0000 0.88150  0.05820  0.36640  Biso   1.000  H
  C37      1.0000 0.82280  0.17030  0.30660  Biso   1.000  C
  H26      1.0000 0.80720  0.22020  0.32450  Biso   1.000  H
  C38      1.0000 0.80120  0.19490  0.25570  Biso   1.000  C
  H27      1.0000 0.77150  0.26100  0.23960  Biso   1.000  H
  C39      1.0000 0.82340  0.12170  0.22760  Biso   1.000  C
  C40      1.0000 0.65390  0.86480  0.20420  Biso   1.000  C
  C41      1.0000 0.67220  0.77060  0.23480  Biso   1.000  C
  H28      1.0000 0.67070  0.71640  0.22160  Biso   1.000  H
  C42      1.0000 0.69380  0.75650  0.28760  Biso   1.000  C
  H29      1.0000 0.70810  0.69280  0.30880  Biso   1.000  H
  C43      1.0000 0.69330  0.83700  0.30640  Biso   1.000  C
  H30      1.0000 0.70590  0.82820  0.34070  Biso   1.000  H
  C44      1.0000 0.67430  0.93180  0.27500  Biso   1.000  C
  H31      1.0000 0.67380  0.98650  0.28830  Biso   1.000  H
  C45      1.0000 0.65620  0.94520  0.22420  Biso   1.000  C
  C46      1.0000 0.58460  0.11680  0.20220  Biso   1.000  C
  H32      1.0000 0.54390  0.10300  0.22890  Biso   1.000  H
  C47      1.0000 0.57040  0.21900  0.17670  Biso   1.000  C
  C48      1.0000 0.51610  0.28770  0.20230  Biso   1.000  C
  H33      1.0000 0.48710  0.26480  0.23220  Biso   1.000  H
  C49      1.0000 0.50410  0.38800  0.18450  Biso   1.000  C
  H34      1.0000 0.46800  0.43290  0.20230  Biso   1.000  H
  C50      1.0000 0.54730  0.42290  0.13870  Biso   1.000  C
  H35      1.0000 0.54090  0.49100  0.12650  Biso   1.000  H
  C51      1.0000 0.59900  0.35540  0.11230  Biso   1.000  C
  H36      1.0000 0.62620  0.37920  0.08190  Biso   1.000  H
  C52      1.0000 0.61170  0.25260  0.12970  Biso   1.000  C
  Ni3      1.0000 0.25171  0.07865  0.34139  Biso   1.000  Ni
  Ni4      1.0000 0.20178  0.22145  0.41800  Biso   1.000  Ni
  S5       1.0000 0.22778  0.94656  0.41453  Biso   1.000  S
  S6       1.0000 0.12170  0.88809  0.39142  Biso   1.000  S
  S7       1.0000 0.08897  0.11467  0.46036  Biso   1.000  S
  S8       1.0000 0.11112  0.09150  0.53714  Biso   1.000  S
  N5       1.0000 0.35680  0.95680  0.32730  Biso   1.000  N
  N6       1.0000 0.14100  0.05820  0.29921  Biso   1.000  N
  N7       1.0000 0.07850  0.32890  0.42942  Biso   1.000  N
  N8       1.0000 0.27430  0.19160  0.48752  Biso   1.000  N
  O5       1.0000 0.29940  0.16400  0.28273  Biso   1.000  O
  O6       1.0000 0.14920  0.20200  0.35283  Biso   1.000  O
  O7       1.0000 0.26720  0.32960  0.39175  Biso   1.000  O
  O8       1.0000 0.31740  0.11770  0.39867  Biso   1.000  O
  C53      1.0000 0.33780  0.85630  0.41000  Biso   1.000  C
  C54      1.0000 0.45600  0.70420  0.44770  Biso   1.000  C
  H37      1.0000 0.47810  0.64940  0.47470  Biso   1.000  H
  C55      1.0000 0.50930  0.71680  0.40380  Biso   1.000  C
  H38      1.0000 0.56740  0.66900  0.40130  Biso   1.000  H
  C56      1.0000 0.47730  0.79890  0.36410  Biso   1.000  C
  H39      1.0000 0.51440  0.80620  0.33530  Biso   1.000  H
  C57      1.0000 0.39090  0.87020  0.36660  Biso   1.000  C
  C58      1.0000 0.38150  0.95610  0.28090  Biso   1.000  C
  H40      1.0000 0.41750  0.89480  0.27550  Biso   1.000  H
  C59      1.0000 0.36080  0.03620  0.23780  Biso   1.000  C
  C60      1.0000 0.38310  0.01300  0.19040  Biso   1.000  C
  H41      1.0000 0.40970  0.94670  0.18890  Biso   1.000  H
  C61      1.0000 0.36640  0.08610  0.14660  Biso   1.000  C
  H42      1.0000 0.38150  0.07000  0.11570  Biso   1.000  H
  C62      1.0000 0.32630  0.18500  0.14920  Biso   1.000  C
  H43      1.0000 0.31530  0.23530  0.11960  Biso   1.000  H
  C63      1.0000 0.30280  0.20950  0.19440  Biso   1.000  C
  H44      1.0000 0.27520  0.27620  0.19480  Biso   1.000  H
  C64      1.0000 0.31890  0.13680  0.24050  Biso   1.000  C
  C65      1.0000 0.15190  0.87880  0.32930  Biso   1.000  C
  C66      1.0000 0.17100  0.78440  0.31900  Biso   1.000  C
  H45      1.0000 0.17360  0.72850  0.34520  Biso   1.000  H
  C67      1.0000 0.18610  0.77380  0.27000  Biso   1.000  C
  H46      1.0000 0.19820  0.71060  0.26340  Biso   1.000  H
  C68      1.0000 0.18330  0.85480  0.23150  Biso   1.000  C
  H47      1.0000 0.19420  0.84640  0.19870  Biso   1.000  H
  C69      1.0000 0.16440  0.95070  0.24050  Biso   1.000  C
  H48      1.0000 0.16130  0.00590  0.21380  Biso   1.000  H
  C70      1.0000 0.15010  0.96250  0.28960  Biso   1.000  C
  C71      1.0000 0.07620  0.13420  0.27310  Biso   1.000  C
  H49      1.0000 0.03530  0.12100  0.25080  Biso   1.000  H
  C72      1.0000 0.06080  0.23640  0.27480  Biso   1.000  C
  C73      1.0000 0.00490  0.30580  0.23520  Biso   1.000  C
  H50      1.0000 0.97810  0.28350  0.21070  Biso   1.000  H
  C74      1.0000 0.98800  0.40550  0.23100  Biso   1.000  C
  H51      1.0000 0.95180  0.45120  0.20350  Biso   1.000  H
  C75      1.0000 0.02570  0.43830  0.26860  Biso   1.000  C
  H52      1.0000 0.01360  0.50650  0.26660  Biso   1.000  H
  C76      1.0000 0.08070  0.37050  0.30870  Biso   1.000  C
  H53      1.0000 0.10620  0.39360  0.33340  Biso   1.000  H
  C77      1.0000 0.09920  0.26710  0.31330  Biso   1.000  C
  C78      1.0000 0.97960  0.21010  0.44540  Biso   1.000  C
  C79      1.0000 0.88990  0.18720  0.44680  Biso   1.000  C
  H54      1.0000 0.88660  0.12140  0.45870  Biso   1.000  H
  C80      1.0000 0.80470  0.26290  0.43050  Biso   1.000  C
  H55      1.0000 0.74400  0.24820  0.43140  Biso   1.000  H
  C81      1.0000 0.81080  0.35850  0.41320  Biso   1.000  C
  H56      1.0000 0.75380  0.40900  0.40180  Biso   1.000  H
  C82      1.0000 0.89920  0.38220  0.41210  Biso   1.000  C
  H57      1.0000 0.90180  0.44800  0.39950  Biso   1.000  H
  C83      1.0000 0.98500  0.30830  0.42990  Biso   1.000  C
  C84      1.0000 0.08270  0.41390  0.43740  Biso   1.000  C
  H58      1.0000 0.02520  0.45400  0.44700  Biso   1.000  H
  C85      1.0000 0.16790  0.45130  0.43280  Biso   1.000  C
  C86      1.0000 0.16120  0.53780  0.45080  Biso   1.000  C
  H59      1.0000 0.10300  0.56640  0.46480  Biso   1.000  H
  C87      1.0000 0.23690  0.58010  0.44830  Biso   1.000  C
  H60      1.0000 0.23180  0.63660  0.46080  Biso   1.000  H
  C88      1.0000 0.32230  0.53730  0.42660  Biso   1.000  C
  H61      1.0000 0.37520  0.56550  0.42520  Biso   1.000  H
  C89      1.0000 0.33190  0.45420  0.40690  Biso   1.000  C
  H62      1.0000 0.38970  0.42910  0.39160  Biso   1.000  H
  C90      1.0000 0.25550  0.40810  0.41010  Biso   1.000  C
  C91      1.0000 0.14260  0.19840  0.54780  Biso   1.000  C
  C92      1.0000 0.08760  0.24520  0.58330  Biso   1.000  C
  H63      1.0000 0.03250  0.22540  0.59660  Biso   1.000  H
  C93      1.0000 0.11460  0.31990  0.59870  Biso   1.000  C
  H64      1.0000 0.07870  0.34930  0.62290  Biso   1.000  H
  C94      1.0000 0.19430  0.35110  0.57850  Biso   1.000  C
  H65      1.0000 0.21270  0.40180  0.58890  Biso   1.000  H
  C95      1.0000 0.24750  0.30670  0.54250  Biso   1.000  C
  H66      1.0000 0.30100  0.32900  0.52850  Biso   1.000  H
  C96      1.0000 0.22290  0.23030  0.52690  Biso   1.000  C
  C97      1.0000 0.36900  0.16010  0.49280  Biso   1.000  C
  H67      1.0000 0.39620  0.16020  0.52350  Biso   1.000  H
  C98      1.0000 0.43640  0.12540  0.45710  Biso   1.000  C
  C99      1.0000 0.53690  0.10820  0.46930  Biso   1.000  C
  H68      1.0000 0.55430  0.11910  0.49980  Biso   1.000  H
  C100     1.0000 0.61060  0.07590  0.43810  Biso   1.000  C
  H69      1.0000 0.67640  0.06460  0.44740  Biso   1.000  H
  C101     1.0000 0.58360  0.06050  0.39200  Biso   1.000  C
  H70      1.0000 0.63200  0.04010  0.36990  Biso   1.000  H
  C102     1.0000 0.48720  0.07520  0.37920  Biso   1.000  C
  H71      1.0000 0.47160  0.06370  0.34860  Biso   1.000  H
  C103     1.0000 0.40980  0.10710  0.41060  Biso   1.000  C
  C104     1.0000 0.36920  0.77600  0.44960  Biso   1.000  C
  H72      1.0000 0.33180  0.76930  0.47830  Biso   1.000  H
  Ni5      1.0000 0.28051  0.79308  0.96659  Biso   1.000  Ni
  Ni6      1.0000 0.23917  0.93839  0.85774  Biso   1.000  Ni
  S9       1.0000 0.37467  0.92856  0.04595  Biso   1.000  S
  S10      1.0000 0.40102  0.88736  0.97791  Biso   1.000  S
  S11      1.0000 0.26591  0.06885  0.89773  Biso   1.000  S
  S12      1.0000 0.37844  0.12156  0.86008  Biso   1.000  S
  N9       1.0000 0.39010  0.67820  0.00613  Biso   1.000  N
  N10      1.0000 0.20800  0.82820  0.03018  Biso   1.000  N
  N11      1.0000 0.13510  0.06010  0.81585  Biso   1.000  N
  N12      1.0000 0.35210  0.95770  0.80815  Biso   1.000  N
  O9       1.0000 0.20510  0.69430  0.96312  Biso   1.000  O
  O10      1.0000 0.17010  0.90390  0.92488  Biso   1.000  O
  O11      1.0000 0.19470  0.85190  0.82063  Biso   1.000  O
  O12      1.0000 0.33910  0.81230  0.89600  Biso   1.000  O
  C105     1.0000 0.34230  0.82670  0.08590  Biso   1.000  C
  C106     1.0000 0.39890  0.78050  0.13060  Biso   1.000  C
  H73      1.0000 0.45460  0.80060  0.13620  Biso   1.000  H
  C107     1.0000 0.37450  0.70640  0.16650  Biso   1.000  C
  H74      1.0000 0.41330  0.67710  0.19600  Biso   1.000  H
  C108     1.0000 0.29310  0.67540  0.15880  Biso   1.000  C
  H75      1.0000 0.27620  0.62510  0.18310  Biso   1.000  H
  C109     1.0000 0.23600  0.71910  0.11490  Biso   1.000  C
  H76      1.0000 0.18060  0.69810  0.10980  Biso   1.000  H
  C110     1.0000 0.26000  0.79380  0.07820  Biso   1.000  C
  C111     1.0000 0.11360  0.85590  0.02940  Biso   1.000  C
  H77      1.0000 0.08470  0.85950  0.06030  Biso   1.000  H
  C112     1.0000 0.04780  0.88180  0.98620  Biso   1.000  C
  C113     1.0000 0.94830  0.88560  0.99540  Biso   1.000  C
  H78      1.0000 0.92840  0.87340  0.02870  Biso   1.000  H
  C114     1.0000 0.88060  0.90650  0.95730  Biso   1.000  C
  H79      1.0000 0.81540  0.90710  0.96420  Biso   1.000  H
  C115     1.0000 0.90940  0.92670  0.90830  Biso   1.000  C
  H80      1.0000 0.86320  0.94060  0.88210  Biso   1.000  H
  C116     1.0000 0.00510  0.92700  0.89720  Biso   1.000  C
  H81      1.0000 0.02220  0.94330  0.86360  Biso   1.000  H
  C117     1.0000 0.07700  0.90330  0.93560  Biso   1.000  C
  C118     1.0000 0.50210  0.78270  0.99390  Biso   1.000  C
  C119     1.0000 0.59630  0.79590  0.99360  Biso   1.000  C
  H82      1.0000 0.60480  0.86020  0.98490  Biso   1.000  H
  C120     1.0000 0.67750  0.71480  0.00600  Biso   1.000  C
  H83      1.0000 0.74040  0.72420  0.00610  Biso   1.000  H
  C121     1.0000 0.66430  0.61980  0.01820  Biso   1.000  C
  H84      1.0000 0.71850  0.56460  0.02640  Biso   1.000  H
  C122     1.0000 0.56980  0.60620  0.01830  Biso   1.000  C
  H85      1.0000 0.56150  0.54170  0.02600  Biso   1.000  H
  C123     1.0000 0.48820  0.68740  0.00709  Biso   1.000  C
  C124     1.0000 0.37030  0.60160  0.03560  Biso   1.000  C
  H86      1.0000 0.42140  0.55820  0.05710  Biso   1.000  H
  C125     1.0000 0.27720  0.57530  0.03900  Biso   1.000  C
  C126     1.0000 0.26490  0.49750  0.07880  Biso   1.000  C
  H87      1.0000 0.31620  0.46500  0.10260  Biso   1.000  H
  C127     1.0000 0.17920  0.46830  0.08350  Biso   1.000  C
  H88      1.0000 0.17240  0.41680  0.11030  Biso   1.000  H
  C128     1.0000 0.10370  0.51540  0.04860  Biso   1.000  C
  H89      1.0000 0.04520  0.49610  0.05210  Biso   1.000  H
  C129     1.0000 0.11310  0.59000  0.00890  Biso   1.000  C
  H90      1.0000 0.06110  0.61980  0.98520  Biso   1.000  H
  C130     1.0000 0.20000  0.62350  0.00240  Biso   1.000  C
  C131     1.0000 0.15960  0.16430  0.86980  Biso   1.000  C
  C132     1.0000 0.13520  0.25210  0.88660  Biso   1.000  C
  H91      1.0000 0.17470  0.26010  0.91140  Biso   1.000  H
  C133     1.0000 0.05290  0.32730  0.86700  Biso   1.000  C
  H92      1.0000 0.03660  0.38650  0.87790  Biso   1.000  H
  C134     1.0000 0.99580  0.31290  0.83110  Biso   1.000  C
  H93      1.0000 0.93990  0.36310  0.81770  Biso   1.000  H
  C135     1.0000 0.01910  0.22570  0.81450  Biso   1.000  C
  H94      1.0000 0.97770  0.21690  0.79090  Biso   1.000  H
  C136     1.0000 0.10450  0.15050  0.83270  Biso   1.000  C
  C137     1.0000 0.11080  0.05940  0.77010  Biso   1.000  C
  H95      1.0000 0.07430  0.12010  0.75050  Biso   1.000  H
  C138     1.0000 0.13320  0.97740  0.74630  Biso   1.000  C
  C139     1.0000 0.11100  0.99970  0.69410  Biso   1.000  C
  H96      1.0000 0.08080  0.06520  0.67720  Biso   1.000  H
  C140     1.0000 0.13300  0.92660  0.66810  Biso   1.000  C
  H97      1.0000 0.11850  0.94180  0.63360  Biso   1.000  H
  C141     1.0000 0.17720  0.82970  0.69340  Biso   1.000  C
  H98      1.0000 0.19280  0.77980  0.67550  Biso   1.000  H
  C142     1.0000 0.19880  0.80510  0.74430  Biso   1.000  C
  H99      1.0000 0.22850  0.73900  0.76040  Biso   1.000  H
  C143     1.0000 0.17660  0.87830  0.77240  Biso   1.000  C
  C144     1.0000 0.34610  0.13520  0.79580  Biso   1.000  C
  C145     1.0000 0.32780  0.22940  0.76520  Biso   1.000  C
  H100     1.0000 0.32930  0.28360  0.77840  Biso   1.000  H
  C146     1.0000 0.30620  0.24350  0.71240  Biso   1.000  C
  H101     1.0000 0.29190  0.30720  0.69120  Biso   1.000  H
  C147     1.0000 0.30670  0.16300  0.69360  Biso   1.000  C
  H102     1.0000 0.29410  0.17180  0.65930  Biso   1.000  H
  C148     1.0000 0.32570  0.06820  0.72500  Biso   1.000  C
  H103     1.0000 0.32620  0.01350  0.71170  Biso   1.000  H
  C149     1.0000 0.34380  0.05480  0.77580  Biso   1.000  C
  C150     1.0000 0.41540  0.88320  0.79780  Biso   1.000  C
  H104     1.0000 0.45610  0.89700  0.77110  Biso   1.000  H
  C151     1.0000 0.42960  0.78100  0.82330  Biso   1.000  C
  C152     1.0000 0.48390  0.71230  0.79770  Biso   1.000  C
  H105     1.0000 0.51290  0.73520  0.76780  Biso   1.000  H
  C153     1.0000 0.49590  0.61200  0.81550  Biso   1.000  C
  H106     1.0000 0.53200  0.56710  0.79770  Biso   1.000  H
  C154     1.0000 0.45270  0.57710  0.86130  Biso   1.000  C
  H107     1.0000 0.45910  0.50900  0.87350  Biso   1.000  H
  C155     1.0000 0.40100  0.64460  0.88770  Biso   1.000  C
  H108     1.0000 0.37380  0.62080  0.91810  Biso   1.000  H
  C156     1.0000 0.38830  0.74740  0.87030  Biso   1.000  C
  Ni7      1.0000 0.74829  0.92135  0.65861  Biso   1.000  Ni
  Ni8      1.0000 0.79822  0.77855  0.58200  Biso   1.000  Ni
  S13      1.0000 0.77222  0.05344  0.58547  Biso   1.000  S
  S14      1.0000 0.87830  0.11191  0.60858  Biso   1.000  S
  S15      1.0000 0.91103  0.88533  0.53964  Biso   1.000  S
  S16      1.0000 0.88888  0.90850  0.46286  Biso   1.000  S
  N13      1.0000 0.64320  0.04320  0.67270  Biso   1.000  N
  N14      1.0000 0.85900  0.94180  0.70079  Biso   1.000  N
  N15      1.0000 0.92150  0.67110  0.57058  Biso   1.000  N
  N16      1.0000 0.72570  0.80840  0.51248  Biso   1.000  N
  O13      1.0000 0.70060  0.83600  0.71727  Biso   1.000  O
  O14      1.0000 0.85080  0.79800  0.64717  Biso   1.000  O
  O15      1.0000 0.73280  0.67040  0.60825  Biso   1.000  O
  O16      1.0000 0.68260  0.88230  0.60133  Biso   1.000  O
  C157     1.0000 0.66220  0.14370  0.59000  Biso   1.000  C
  C158     1.0000 0.54400  0.29580  0.55230  Biso   1.000  C
  H109     1.0000 0.52190  0.35060  0.52530  Biso   1.000  H
  C159     1.0000 0.49070  0.28320  0.59620  Biso   1.000  C
  H110     1.0000 0.43260  0.33100  0.59870  Biso   1.000  H
  C160     1.0000 0.52270  0.20110  0.63590  Biso   1.000  C
  H111     1.0000 0.48560  0.19380  0.66470  Biso   1.000  H
  C161     1.0000 0.60910  0.12980  0.63340  Biso   1.000  C
  C162     1.0000 0.61850  0.04390  0.71910  Biso   1.000  C
  H112     1.0000 0.58250  0.10520  0.72450  Biso   1.000  H
  C163     1.0000 0.63920  0.96380  0.76220  Biso   1.000  C
  C164     1.0000 0.61690  0.98700  0.80960  Biso   1.000  C
  H113     1.0000 0.59030  0.05330  0.81110  Biso   1.000  H
  C165     1.0000 0.63360  0.91390  0.85340  Biso   1.000  C
  H114     1.0000 0.61850  0.93000  0.88430  Biso   1.000  H
  C166     1.0000 0.67370  0.81500  0.85080  Biso   1.000  C
  H115     1.0000 0.68470  0.76470  0.88040  Biso   1.000  H
  C167     1.0000 0.69720  0.79050  0.80560  Biso   1.000  C
  H116     1.0000 0.72480  0.72380  0.80520  Biso   1.000  H
  C168     1.0000 0.68110  0.86320  0.75950  Biso   1.000  C
  C169     1.0000 0.84810  0.12120  0.67070  Biso   1.000  C
  C170     1.0000 0.82900  0.21560  0.68100  Biso   1.000  C
  H117     1.0000 0.82640  0.27150  0.65480  Biso   1.000  H
  C171     1.0000 0.81390  0.22620  0.73000  Biso   1.000  C
  H118     1.0000 0.80180  0.28940  0.73660  Biso   1.000  H
  C172     1.0000 0.81670  0.14520  0.76850  Biso   1.000  C
  H119     1.0000 0.80580  0.15360  0.80130  Biso   1.000  H
  C173     1.0000 0.83560  0.04930  0.75950  Biso   1.000  C
  H120     1.0000 0.83870  0.99410  0.78620  Biso   1.000  H
  C174     1.0000 0.84990  0.03750  0.71040  Biso   1.000  C
  C175     1.0000 0.92380  0.86580  0.72690  Biso   1.000  C
  H121     1.0000 0.96470  0.87900  0.74920  Biso   1.000  H
  C176     1.0000 0.93920  0.76360  0.72520  Biso   1.000  C
  C177     1.0000 0.99510  0.69420  0.76480  Biso   1.000  C
  H122     1.0000 0.02190  0.71650  0.78930  Biso   1.000  H
  C178     1.0000 0.01200  0.59450  0.76900  Biso   1.000  C
  H123     1.0000 0.04820  0.54880  0.79650  Biso   1.000  H
  C179     1.0000 0.97430  0.56170  0.73140  Biso   1.000  C
  H124     1.0000 0.98640  0.49350  0.73340  Biso   1.000  H
  C180     1.0000 0.91930  0.62950  0.69130  Biso   1.000  C
  H125     1.0000 0.89380  0.60640  0.66660  Biso   1.000  H
  C181     1.0000 0.90080  0.73290  0.68670  Biso   1.000  C
  C182     1.0000 0.02040  0.78990  0.55460  Biso   1.000  C
  C183     1.0000 0.11010  0.81280  0.55320  Biso   1.000  C
  H126     1.0000 0.11340  0.87860  0.54130  Biso   1.000  H
  C184     1.0000 0.19530  0.73710  0.56950  Biso   1.000  C
  H127     1.0000 0.25600  0.75180  0.56860  Biso   1.000  H
  C185     1.0000 0.18920  0.64150  0.58680  Biso   1.000  C
  H128     1.0000 0.24620  0.59100  0.59820  Biso   1.000  H
  C186     1.0000 0.10080  0.61780  0.58790  Biso   1.000  C
  H129     1.0000 0.09820  0.55200  0.60050  Biso   1.000  H
  C187     1.0000 0.01500  0.69170  0.57010  Biso   1.000  C
  C188     1.0000 0.91730  0.58610  0.56260  Biso   1.000  C
  H130     1.0000 0.97480  0.54600  0.55300  Biso   1.000  H
  C189     1.0000 0.83210  0.54870  0.56720  Biso   1.000  C
  C190     1.0000 0.83880  0.46220  0.54920  Biso   1.000  C
  H131     1.0000 0.89700  0.43360  0.53520  Biso   1.000  H
  C191     1.0000 0.76310  0.41990  0.55170  Biso   1.000  C
  H132     1.0000 0.76820  0.36340  0.53920  Biso   1.000  H
  C192     1.0000 0.67770  0.46270  0.57340  Biso   1.000  C
  H133     1.0000 0.62480  0.43450  0.57480  Biso   1.000  H
  C193     1.0000 0.66810  0.54580  0.59310  Biso   1.000  C
  H134     1.0000 0.61030  0.57090  0.60840  Biso   1.000  H
  C194     1.0000 0.74450  0.59190  0.58990  Biso   1.000  C
  C195     1.0000 0.85740  0.80160  0.45220  Biso   1.000  C
  C196     1.0000 0.91240  0.75480  0.41670  Biso   1.000  C
  H135     1.0000 0.96750  0.77460  0.40340  Biso   1.000  H
  C197     1.0000 0.88540  0.68010  0.40130  Biso   1.000  C
  H136     1.0000 0.92130  0.65070  0.37710  Biso   1.000  H
  C198     1.0000 0.80570  0.64890  0.42150  Biso   1.000  C
  H137     1.0000 0.78730  0.59820  0.41110  Biso   1.000  H
  C199     1.0000 0.75250  0.69330  0.45750  Biso   1.000  C
  H138     1.0000 0.69900  0.67100  0.47150  Biso   1.000  H
  C200     1.0000 0.77710  0.76970  0.47310  Biso   1.000  C
  C201     1.0000 0.63100  0.83990  0.50720  Biso   1.000  C
  H139     1.0000 0.60380  0.83980  0.47650  Biso   1.000  H
  C202     1.0000 0.56360  0.87460  0.54290  Biso   1.000  C
  C203     1.0000 0.46310  0.89180  0.53070  Biso   1.000  C
  H140     1.0000 0.44570  0.88090  0.50020  Biso   1.000  H
  C204     1.0000 0.38940  0.92410  0.56190  Biso   1.000  C
  H141     1.0000 0.32360  0.93540  0.55260  Biso   1.000  H
  C205     1.0000 0.41640  0.93950  0.60800  Biso   1.000  C
  H142     1.0000 0.36800  0.95990  0.63010  Biso   1.000  H
  C206     1.0000 0.51280  0.92480  0.62080  Biso   1.000  C
  H143     1.0000 0.52840  0.93630  0.65140  Biso   1.000  H
  C207     1.0000 0.59020  0.89290  0.58940  Biso   1.000  C
  C208     1.0000 0.63080  0.22400  0.55040  Biso   1.000  C
  H144     1.0000 0.66820  0.23070  0.52170  Biso   1.000  H
