data_image0
_cell_length_a       7.353
_cell_length_b       7.3876
_cell_length_c       10.1154
_cell_angle_alpha    73.526
_cell_angle_beta     88.665
_cell_angle_gamma    63.878

_symmetry_space_group_name_H-M    "P 1"
_symmetry_int_tables_number       1

loop_
  _symmetry_equiv_pos_as_xyz
  'x, y, z'

loop_
  _atom_site_label
  _atom_site_occupancy
  _atom_site_fract_x
  _atom_site_fract_y
  _atom_site_fract_z
  _atom_site_thermal_displace_type
  _atom_site_B_iso_or_equiv
  _atom_site_type_symbol
  O1       1.0000 0.77430  0.66470  0.32569  Biso   1.000  O
  O2       1.0000 0.97410  0.68060  0.15724  Biso   1.000  O
  O3       1.0000 0.22420  0.76910  0.69551  Biso   1.000  O
  O4       1.0000 0.00740  0.91650  0.83414  Biso   1.000  O
  N1       1.0000 0.30220  0.83960  0.01517  Biso   1.000  N
  C1       1.0000 0.35890  0.78910  0.89810  Biso   1.000  C
  C2       1.0000 0.55830  0.70950  0.87130  Biso   1.000  C
  H1       1.0000 0.59420  0.67630  0.78930  Biso   1.000  H
  C3       1.0000 0.70500  0.68000  0.97010  Biso   1.000  C
  H2       1.0000 0.84060  0.63230  0.95290  Biso   1.000  H
  C4       1.0000 0.64960  0.72150  0.09420  Biso   1.000  C
  C5       1.0000 0.81160  0.68660  0.20120  Biso   1.000  C
  C6       1.0000 0.44500  0.80210  0.11310  Biso   1.000  C
  H3       1.0000 0.40570  0.83090  0.19580  Biso   1.000  H
  C7       1.0000 0.18460  0.82840  0.79930  Biso   1.000  C
  O5       1.0000 0.22570  0.33530  0.67431  Biso   1.000  O
  O6       1.0000 0.02590  0.31940  0.84276  Biso   1.000  O
  O7       1.0000 0.77580  0.23090  0.30449  Biso   1.000  O
  O8       1.0000 0.99260  0.08350  0.16586  Biso   1.000  O
  N2       1.0000 0.69780  0.16040  0.98483  Biso   1.000  N
  C8       1.0000 0.64110  0.21090  0.10190  Biso   1.000  C
  C9       1.0000 0.44170  0.29050  0.12870  Biso   1.000  C
  H4       1.0000 0.40580  0.32370  0.21070  Biso   1.000  H
  C10      1.0000 0.29500  0.32000  0.02990  Biso   1.000  C
  H5       1.0000 0.15940  0.36770  0.04710  Biso   1.000  H
  C11      1.0000 0.35040  0.27850  0.90580  Biso   1.000  C
  C12      1.0000 0.18840  0.31340  0.79880  Biso   1.000  C
  C13      1.0000 0.55500  0.19790  0.88690  Biso   1.000  C
  H6       1.0000 0.59430  0.16910  0.80420  Biso   1.000  H
  C14      1.0000 0.81540  0.17160  0.20070  Biso   1.000  C
  Cu1      1.0000 0.00000  0.00000  0.00000  Biso   1.000  Cu
  Mg1      1.0000 0.00000  0.50000  0.50000  Biso   1.000  Mg
