data_image0
_cell_length_a       9.038
_cell_length_b       16.481
_cell_length_c       15.132
_cell_angle_alpha    90
_cell_angle_beta     94.585
_cell_angle_gamma    90

_symmetry_space_group_name_H-M    "P 1"
_symmetry_int_tables_number       1

loop_
  _symmetry_equiv_pos_as_xyz
  'x, y, z'

loop_
  _atom_site_label
  _atom_site_occupancy
  _atom_site_fract_x
  _atom_site_fract_y
  _atom_site_fract_z
  _atom_site_thermal_displace_type
  _atom_site_B_iso_or_equiv
  _atom_site_type_symbol
  O1       1.0000 0.24840  0.31752  0.09743  Biso   1.000  O
  C1       1.0000 0.24640  0.39340  0.11290  Biso   1.000  C
  N1       1.0000 0.71270  0.70576  0.08540  Biso   1.000  N
  C2       1.0000 0.73340  0.66500  0.16160  Biso   1.000  C
  H1       1.0000 0.82710  0.64390  0.17760  Biso   1.000  H
  C3       1.0000 0.57690  0.73670  0.06600  Biso   1.000  C
  H2       1.0000 0.55850  0.76480  0.01290  Biso   1.000  H
  Cu1      1.0000 0.62068  0.21242  0.49369  Biso   1.000  Cu
  O2       1.0000 0.57400  0.35948  0.48187  Biso   1.000  O
  O3       1.0000 0.49010  0.25857  0.39648  Biso   1.000  O
  O4       1.0000 0.19200  0.44400  0.06027  Biso   1.000  O
  C4       1.0000 0.31530  0.42080  0.20210  Biso   1.000  C
  C5       1.0000 0.32340  0.50340  0.22050  Biso   1.000  C
  H3       1.0000 0.28930  0.54040  0.17710  Biso   1.000  H
  C6       1.0000 0.37010  0.36480  0.26510  Biso   1.000  C
  H4       1.0000 0.36610  0.30960  0.25260  Biso   1.000  H
  C7       1.0000 0.50200  0.33390  0.41390  Biso   1.000  C
  N2       1.0000 0.38740  0.61271  0.32431  Biso   1.000  N
  H5       1.0000 0.47650  0.62140  0.35220  Biso   1.000  H
  H6       1.0000 0.32160  0.62030  0.36420  Biso   1.000  H
  C8       1.0000 0.43590  0.47430  0.36580  Biso   1.000  C
  H7       1.0000 0.47570  0.49180  0.42110  Biso   1.000  H
  C9       1.0000 0.38190  0.53160  0.30280  Biso   1.000  C
  C10      1.0000 0.43100  0.39230  0.34710  Biso   1.000  C
  C11      1.0000 0.48480  0.68600  0.19760  Biso   1.000  C
  C12      1.0000 0.36350  0.67700  0.25990  Biso   1.000  C
  H8       1.0000 0.35370  0.72790  0.29120  Biso   1.000  H
  H9       1.0000 0.27050  0.66710  0.22510  Biso   1.000  H
  C13      1.0000 0.46460  0.72890  0.12030  Biso   1.000  C
  H10      1.0000 0.37320  0.75300  0.10460  Biso   1.000  H
  C14      1.0000 0.62400  0.65290  0.21720  Biso   1.000  C
  H11      1.0000 0.64310  0.62230  0.26840  Biso   1.000  H
  O5       1.0000 0.25160  0.81752  0.40257  Biso   1.000  O
  C15      1.0000 0.25360  0.89340  0.38710  Biso   1.000  C
  N3       1.0000 0.78730  0.20576  0.41460  Biso   1.000  N
  C16      1.0000 0.76660  0.16500  0.33840  Biso   1.000  C
  H12      1.0000 0.67290  0.14390  0.32240  Biso   1.000  H
  C17      1.0000 0.92310  0.23670  0.43400  Biso   1.000  C
  H13      1.0000 0.94150  0.26480  0.48710  Biso   1.000  H
  Cu2      1.0000 0.87932  0.71242  0.00631  Biso   1.000  Cu
  O6       1.0000 0.92600  0.85948  0.01813  Biso   1.000  O
  O7       1.0000 0.00990  0.75857  0.10352  Biso   1.000  O
  O8       1.0000 0.30800  0.94400  0.43973  Biso   1.000  O
  C18      1.0000 0.18470  0.92080  0.29790  Biso   1.000  C
  C19      1.0000 0.17660  0.00340  0.27950  Biso   1.000  C
  H14      1.0000 0.21070  0.04040  0.32290  Biso   1.000  H
  C20      1.0000 0.12990  0.86480  0.23490  Biso   1.000  C
  H15      1.0000 0.13390  0.80960  0.24740  Biso   1.000  H
  C21      1.0000 0.99800  0.83390  0.08610  Biso   1.000  C
  N4       1.0000 0.11260  0.11271  0.17569  Biso   1.000  N
  H16      1.0000 0.02350  0.12140  0.14780  Biso   1.000  H
  H17      1.0000 0.17840  0.12030  0.13580  Biso   1.000  H
  C22      1.0000 0.06410  0.97430  0.13420  Biso   1.000  C
  H18      1.0000 0.02430  0.99180  0.07890  Biso   1.000  H
  C23      1.0000 0.11810  0.03160  0.19720  Biso   1.000  C
  C24      1.0000 0.06900  0.89230  0.15290  Biso   1.000  C
  C25      1.0000 0.01520  0.18600  0.30240  Biso   1.000  C
  C26      1.0000 0.13650  0.17700  0.24010  Biso   1.000  C
  H19      1.0000 0.14630  0.22790  0.20880  Biso   1.000  H
  H20      1.0000 0.22950  0.16710  0.27490  Biso   1.000  H
  C27      1.0000 0.03540  0.22890  0.37970  Biso   1.000  C
  H21      1.0000 0.12680  0.25300  0.39540  Biso   1.000  H
  C28      1.0000 0.87600  0.15290  0.28280  Biso   1.000  C
  H22      1.0000 0.85690  0.12230  0.23160  Biso   1.000  H
  O9       1.0000 0.75160  0.68248  0.90257  Biso   1.000  O
  C29      1.0000 0.75360  0.60660  0.88710  Biso   1.000  C
  N5       1.0000 0.28730  0.29424  0.91460  Biso   1.000  N
  C30      1.0000 0.26660  0.33500  0.83840  Biso   1.000  C
  H23      1.0000 0.17290  0.35610  0.82240  Biso   1.000  H
  C31      1.0000 0.42310  0.26330  0.93400  Biso   1.000  C
  H24      1.0000 0.44150  0.23520  0.98710  Biso   1.000  H
  Cu3      1.0000 0.37932  0.78758  0.50631  Biso   1.000  Cu
  O10      1.0000 0.42600  0.64052  0.51813  Biso   1.000  O
  O11      1.0000 0.50990  0.74143  0.60352  Biso   1.000  O
  O12      1.0000 0.80800  0.55600  0.93973  Biso   1.000  O
  C32      1.0000 0.68470  0.57920  0.79790  Biso   1.000  C
  C33      1.0000 0.67660  0.49660  0.77950  Biso   1.000  C
  H25      1.0000 0.71070  0.45960  0.82290  Biso   1.000  H
  C34      1.0000 0.62990  0.63520  0.73490  Biso   1.000  C
  H26      1.0000 0.63390  0.69040  0.74740  Biso   1.000  H
  C35      1.0000 0.49800  0.66610  0.58610  Biso   1.000  C
  N6       1.0000 0.61260  0.38729  0.67569  Biso   1.000  N
  H27      1.0000 0.52350  0.37860  0.64780  Biso   1.000  H
  H28      1.0000 0.67840  0.37970  0.63580  Biso   1.000  H
  C36      1.0000 0.56410  0.52570  0.63420  Biso   1.000  C
  H29      1.0000 0.52430  0.50820  0.57890  Biso   1.000  H
  C37      1.0000 0.61810  0.46840  0.69720  Biso   1.000  C
  C38      1.0000 0.56900  0.60770  0.65290  Biso   1.000  C
  C39      1.0000 0.51520  0.31400  0.80240  Biso   1.000  C
  C40      1.0000 0.63650  0.32300  0.74010  Biso   1.000  C
  H30      1.0000 0.64630  0.27210  0.70880  Biso   1.000  H
  H31      1.0000 0.72950  0.33290  0.77490  Biso   1.000  H
  C41      1.0000 0.53540  0.27110  0.87970  Biso   1.000  C
  H32      1.0000 0.62680  0.24700  0.89540  Biso   1.000  H
  C42      1.0000 0.37600  0.34710  0.78280  Biso   1.000  C
  H33      1.0000 0.35690  0.37770  0.73160  Biso   1.000  H
  O13      1.0000 0.74840  0.18248  0.59743  Biso   1.000  O
  C43      1.0000 0.74640  0.10660  0.61290  Biso   1.000  C
  N7       1.0000 0.21270  0.79424  0.58540  Biso   1.000  N
  C44      1.0000 0.23340  0.83500  0.66160  Biso   1.000  C
  H34      1.0000 0.32710  0.85610  0.67760  Biso   1.000  H
  C45      1.0000 0.07690  0.76330  0.56600  Biso   1.000  C
  H35      1.0000 0.05850  0.73520  0.51290  Biso   1.000  H
  Cu4      1.0000 0.12068  0.28758  0.99369  Biso   1.000  Cu
  O14      1.0000 0.07400  0.14052  0.98187  Biso   1.000  O
  O15      1.0000 0.99010  0.24143  0.89648  Biso   1.000  O
  O16      1.0000 0.69200  0.05600  0.56027  Biso   1.000  O
  C46      1.0000 0.81530  0.07920  0.70210  Biso   1.000  C
  C47      1.0000 0.82340  0.99660  0.72050  Biso   1.000  C
  H36      1.0000 0.78930  0.95960  0.67710  Biso   1.000  H
  C48      1.0000 0.87010  0.13520  0.76510  Biso   1.000  C
  H37      1.0000 0.86610  0.19040  0.75260  Biso   1.000  H
  C49      1.0000 0.00200  0.16610  0.91390  Biso   1.000  C
  N8       1.0000 0.88740  0.88729  0.82431  Biso   1.000  N
  H38      1.0000 0.97650  0.87860  0.85220  Biso   1.000  H
  H39      1.0000 0.82160  0.87970  0.86420  Biso   1.000  H
  C50      1.0000 0.93590  0.02570  0.86580  Biso   1.000  C
  H40      1.0000 0.97570  0.00820  0.92110  Biso   1.000  H
  C51      1.0000 0.88190  0.96840  0.80280  Biso   1.000  C
  C52      1.0000 0.93100  0.10770  0.84710  Biso   1.000  C
  C53      1.0000 0.98480  0.81400  0.69760  Biso   1.000  C
  C54      1.0000 0.86350  0.82300  0.75990  Biso   1.000  C
  H41      1.0000 0.85370  0.77210  0.79120  Biso   1.000  H
  H42      1.0000 0.77050  0.83290  0.72510  Biso   1.000  H
  C55      1.0000 0.96460  0.77110  0.62030  Biso   1.000  C
  H43      1.0000 0.87320  0.74700  0.60460  Biso   1.000  H
  C56      1.0000 0.12400  0.84710  0.71720  Biso   1.000  C
  H44      1.0000 0.14310  0.87770  0.76840  Biso   1.000  H
