data_image0
_cell_length_a       7.6789
_cell_length_b       13.7771
_cell_length_c       8.708
_cell_angle_alpha    90
_cell_angle_beta     107.606
_cell_angle_gamma    90

_symmetry_space_group_name_H-M    "P 1"
_symmetry_int_tables_number       1

loop_
  _symmetry_equiv_pos_as_xyz
  'x, y, z'

loop_
  _atom_site_label
  _atom_site_occupancy
  _atom_site_fract_x
  _atom_site_fract_y
  _atom_site_fract_z
  _atom_site_thermal_displace_type
  _atom_site_B_iso_or_equiv
  _atom_site_type_symbol
  Cu1      1.0000 0.15389  0.14078  0.35918  Biso   1.000  Cu
  O1       1.0000 0.11650  0.16790  0.12988  Biso   1.000  O
  N1       1.0000 0.17530  0.08634  0.58340  Biso   1.000  N
  N2       1.0000 0.96870  0.03023  0.29460  Biso   1.000  N
  C1       1.0000 0.05730  0.01554  0.58010  Biso   1.000  C
  C2       1.0000 0.28240  0.11383  0.72940  Biso   1.000  C
  H1       1.0000 0.36970  0.16400  0.73800  Biso   1.000  H
  C3       1.0000 0.86200  0.00273  0.14860  Biso   1.000  C
  H2       1.0000 0.87510  0.03350  0.05500  Biso   1.000  H
  C4       1.0000 0.73310  0.93013  0.13260  Biso   1.000  C
  H3       1.0000 0.65700  0.91100  0.02930  Biso   1.000  H
  Cu2      1.0000 0.84611  0.64078  0.64082  Biso   1.000  Cu
  O2       1.0000 0.88350  0.66790  0.87012  Biso   1.000  O
  N3       1.0000 0.82470  0.58634  0.41660  Biso   1.000  N
  N4       1.0000 0.03130  0.53023  0.70540  Biso   1.000  N
  C5       1.0000 0.94270  0.51554  0.41990  Biso   1.000  C
  C6       1.0000 0.71760  0.61383  0.27060  Biso   1.000  C
  H4       1.0000 0.63030  0.66400  0.26200  Biso   1.000  H
  C7       1.0000 0.13800  0.50273  0.85140  Biso   1.000  C
  H5       1.0000 0.12490  0.53350  0.94500  Biso   1.000  H
  C8       1.0000 0.26690  0.43013  0.86740  Biso   1.000  C
  H6       1.0000 0.34300  0.41100  0.97070  Biso   1.000  H
  Cu3      1.0000 0.84611  0.85922  0.64082  Biso   1.000  Cu
  O3       1.0000 0.88350  0.83210  0.87012  Biso   1.000  O
  N5       1.0000 0.82470  0.91366  0.41660  Biso   1.000  N
  N6       1.0000 0.03130  0.96977  0.70540  Biso   1.000  N
  C9       1.0000 0.94270  0.98446  0.41990  Biso   1.000  C
  C10      1.0000 0.71760  0.88617  0.27060  Biso   1.000  C
  H7       1.0000 0.63030  0.83600  0.26200  Biso   1.000  H
  C11      1.0000 0.13800  0.99727  0.85140  Biso   1.000  C
  H8       1.0000 0.12490  0.96650  0.94500  Biso   1.000  H
  C12      1.0000 0.26690  0.06987  0.86740  Biso   1.000  C
  H9       1.0000 0.34300  0.08900  0.97070  Biso   1.000  H
  Cu4      1.0000 0.15389  0.35922  0.35918  Biso   1.000  Cu
  O4       1.0000 0.11650  0.33210  0.12988  Biso   1.000  O
  N7       1.0000 0.17530  0.41366  0.58340  Biso   1.000  N
  N8       1.0000 0.96870  0.46977  0.29460  Biso   1.000  N
  C13      1.0000 0.05730  0.48446  0.58010  Biso   1.000  C
  C14      1.0000 0.28240  0.38617  0.72940  Biso   1.000  C
  H10      1.0000 0.36970  0.33600  0.73800  Biso   1.000  H
  C15      1.0000 0.86200  0.49727  0.14860  Biso   1.000  C
  H11      1.0000 0.87510  0.46650  0.05500  Biso   1.000  H
  C16      1.0000 0.73310  0.56987  0.13260  Biso   1.000  C
  H12      1.0000 0.65700  0.58900  0.02930  Biso   1.000  H
  C17      1.0000 0.10140  0.25000  0.06460  Biso   1.000  C
  H13      1.0000 0.07500  0.25000  0.95070  Biso   1.000  H
  O5       1.0000 0.30630  0.25000  0.44410  Biso   1.000  O
  H14      1.0000 0.38000  0.25000  0.41700  Biso   1.000  H
  C18      1.0000 0.89860  0.75000  0.93540  Biso   1.000  C
  H15      1.0000 0.92500  0.75000  0.04930  Biso   1.000  H
  O6       1.0000 0.69370  0.75000  0.55590  Biso   1.000  O
  H16      1.0000 0.62000  0.75000  0.58300  Biso   1.000  H
