data_image0
_cell_length_a       16.847
_cell_length_b       6.2741
_cell_length_c       15.814
_cell_angle_alpha    90
_cell_angle_beta     106.321
_cell_angle_gamma    90

_symmetry_space_group_name_H-M    "P 1"
_symmetry_int_tables_number       1

loop_
  _symmetry_equiv_pos_as_xyz
  'x, y, z'

loop_
  _atom_site_label
  _atom_site_occupancy
  _atom_site_fract_x
  _atom_site_fract_y
  _atom_site_fract_z
  _atom_site_thermal_displace_type
  _atom_site_B_iso_or_equiv
  _atom_site_type_symbol
  Co1      1.0000 0.34508  0.50366  0.03158  Biso   1.000  Co
  P1       1.0000 0.31566  0.46070  0.82921  Biso   1.000  P
  P2       1.0000 0.29034  0.03590  0.03217  Biso   1.000  P
  C1       1.0000 0.90310  0.39420  0.81630  Biso   1.000  C
  H1       1.0000 0.84940  0.37860  0.78010  Biso   1.000  H
  C2       1.0000 0.94900  0.56810  0.80950  Biso   1.000  C
  H2       1.0000 0.92530  0.67200  0.76810  Biso   1.000  H
  C3       1.0000 0.02870  0.59750  0.86070  Biso   1.000  C
  H3       1.0000 0.05710  0.72120  0.85490  Biso   1.000  H
  C4       1.0000 0.06700  0.44240  0.92150  Biso   1.000  C
  C5       1.0000 0.02050  0.26730  0.92910  Biso   1.000  C
  H4       1.0000 0.04470  0.16200  0.96950  Biso   1.000  H
  C6       1.0000 0.93830  0.24060  0.87870  Biso   1.000  C
  H5       1.0000 0.90800  0.12230  0.88690  Biso   1.000  H
  C7       1.0000 0.15380  0.46940  0.97950  Biso   1.000  C
  H6       1.0000 0.15850  0.39460  0.03430  Biso   1.000  H
  H7       1.0000 0.16280  0.61950  0.99340  Biso   1.000  H
  C8       1.0000 0.21830  0.48990  0.85620  Biso   1.000  C
  H8       1.0000 0.20510  0.64020  0.85760  Biso   1.000  H
  H9       1.0000 0.17450  0.42280  0.81070  Biso   1.000  H
  C9       1.0000 0.22090  0.15570  0.93630  Biso   1.000  C
  H10      1.0000 0.23670  0.11320  0.88430  Biso   1.000  H
  H11      1.0000 0.16520  0.10450  0.92980  Biso   1.000  H
  N1       1.0000 0.22190  0.39230  0.94260  Biso   1.000  N
  O1       1.0000 0.31330  0.61240  0.75480  Biso   1.000  O
  O2       1.0000 0.38230  0.51080  0.91510  Biso   1.000  O
  O3       1.0000 0.32390  0.22970  0.80000  Biso   1.000  O
  H12      1.0000 0.36500  0.21610  0.78240  Biso   1.000  H
  O4       1.0000 0.36510  0.17950  0.05870  Biso   1.000  O
  O5       1.0000 0.30830  0.81260  0.00820  Biso   1.000  O
  O6       1.0000 0.24090  0.03730  0.10100  Biso   1.000  O
  H13      1.0000 0.26940  0.98660  0.14740  Biso   1.000  H
  Co2      1.0000 0.65492  0.00366  0.46842  Biso   1.000  Co
  P3       1.0000 0.68434  0.96070  0.67079  Biso   1.000  P
  P4       1.0000 0.70966  0.53590  0.46783  Biso   1.000  P
  C10      1.0000 0.09690  0.89420  0.68370  Biso   1.000  C
  H14      1.0000 0.15060  0.87860  0.71990  Biso   1.000  H
  C11      1.0000 0.05100  0.06810  0.69050  Biso   1.000  C
  H15      1.0000 0.07470  0.17200  0.73190  Biso   1.000  H
  C12      1.0000 0.97130  0.09750  0.63930  Biso   1.000  C
  H16      1.0000 0.94290  0.22120  0.64510  Biso   1.000  H
  C13      1.0000 0.93300  0.94240  0.57850  Biso   1.000  C
  C14      1.0000 0.97950  0.76730  0.57090  Biso   1.000  C
  H17      1.0000 0.95530  0.66200  0.53050  Biso   1.000  H
  C15      1.0000 0.06170  0.74060  0.62130  Biso   1.000  C
  H18      1.0000 0.09200  0.62230  0.61310  Biso   1.000  H
  C16      1.0000 0.84620  0.96940  0.52050  Biso   1.000  C
  H19      1.0000 0.84150  0.89460  0.46570  Biso   1.000  H
  H20      1.0000 0.83720  0.11950  0.50660  Biso   1.000  H
  C17      1.0000 0.78170  0.98990  0.64380  Biso   1.000  C
  H21      1.0000 0.79490  0.14020  0.64240  Biso   1.000  H
  H22      1.0000 0.82550  0.92280  0.68930  Biso   1.000  H
  C18      1.0000 0.77910  0.65570  0.56370  Biso   1.000  C
  H23      1.0000 0.76330  0.61320  0.61570  Biso   1.000  H
  H24      1.0000 0.83480  0.60450  0.57020  Biso   1.000  H
  N2       1.0000 0.77810  0.89230  0.55740  Biso   1.000  N
  O7       1.0000 0.68670  0.11240  0.74520  Biso   1.000  O
  O8       1.0000 0.61770  0.01080  0.58490  Biso   1.000  O
  O9       1.0000 0.67610  0.72970  0.70000  Biso   1.000  O
  H25      1.0000 0.63500  0.71610  0.71760  Biso   1.000  H
  O10      1.0000 0.63490  0.67950  0.44130  Biso   1.000  O
  O11      1.0000 0.69170  0.31260  0.49180  Biso   1.000  O
  O12      1.0000 0.75910  0.53730  0.39900  Biso   1.000  O
  H26      1.0000 0.73060  0.48660  0.35260  Biso   1.000  H
  Co3      1.0000 0.65492  0.49634  0.96842  Biso   1.000  Co
  P5       1.0000 0.68434  0.53930  0.17079  Biso   1.000  P
  P6       1.0000 0.70966  0.96410  0.96783  Biso   1.000  P
  C19      1.0000 0.09690  0.60580  0.18370  Biso   1.000  C
  H27      1.0000 0.15060  0.62140  0.21990  Biso   1.000  H
  C20      1.0000 0.05100  0.43190  0.19050  Biso   1.000  C
  H28      1.0000 0.07470  0.32800  0.23190  Biso   1.000  H
  C21      1.0000 0.97130  0.40250  0.13930  Biso   1.000  C
  H29      1.0000 0.94290  0.27880  0.14510  Biso   1.000  H
  C22      1.0000 0.93300  0.55760  0.07850  Biso   1.000  C
  C23      1.0000 0.97950  0.73270  0.07090  Biso   1.000  C
  H30      1.0000 0.95530  0.83800  0.03050  Biso   1.000  H
  C24      1.0000 0.06170  0.75940  0.12130  Biso   1.000  C
  H31      1.0000 0.09200  0.87770  0.11310  Biso   1.000  H
  C25      1.0000 0.84620  0.53060  0.02050  Biso   1.000  C
  H32      1.0000 0.84150  0.60540  0.96570  Biso   1.000  H
  H33      1.0000 0.83720  0.38050  0.00660  Biso   1.000  H
  C26      1.0000 0.78170  0.51010  0.14380  Biso   1.000  C
  H34      1.0000 0.79490  0.35980  0.14240  Biso   1.000  H
  H35      1.0000 0.82550  0.57720  0.18930  Biso   1.000  H
  C27      1.0000 0.77910  0.84430  0.06370  Biso   1.000  C
  H36      1.0000 0.76330  0.88680  0.11570  Biso   1.000  H
  H37      1.0000 0.83480  0.89550  0.07020  Biso   1.000  H
  N3       1.0000 0.77810  0.60770  0.05740  Biso   1.000  N
  O13      1.0000 0.68670  0.38760  0.24520  Biso   1.000  O
  O14      1.0000 0.61770  0.48920  0.08490  Biso   1.000  O
  O15      1.0000 0.67610  0.77030  0.20000  Biso   1.000  O
  H38      1.0000 0.63500  0.78390  0.21760  Biso   1.000  H
  O16      1.0000 0.63490  0.82050  0.94130  Biso   1.000  O
  O17      1.0000 0.69170  0.18740  0.99180  Biso   1.000  O
  O18      1.0000 0.75910  0.96270  0.89900  Biso   1.000  O
  H39      1.0000 0.73060  0.01340  0.85260  Biso   1.000  H
  Co4      1.0000 0.34508  0.99634  0.53158  Biso   1.000  Co
  P7       1.0000 0.31566  0.03930  0.32921  Biso   1.000  P
  P8       1.0000 0.29034  0.46410  0.53217  Biso   1.000  P
  C28      1.0000 0.90310  0.10580  0.31630  Biso   1.000  C
  H40      1.0000 0.84940  0.12140  0.28010  Biso   1.000  H
  C29      1.0000 0.94900  0.93190  0.30950  Biso   1.000  C
  H41      1.0000 0.92530  0.82800  0.26810  Biso   1.000  H
  C30      1.0000 0.02870  0.90250  0.36070  Biso   1.000  C
  H42      1.0000 0.05710  0.77880  0.35490  Biso   1.000  H
  C31      1.0000 0.06700  0.05760  0.42150  Biso   1.000  C
  C32      1.0000 0.02050  0.23270  0.42910  Biso   1.000  C
  H43      1.0000 0.04470  0.33800  0.46950  Biso   1.000  H
  C33      1.0000 0.93830  0.25940  0.37870  Biso   1.000  C
  H44      1.0000 0.90800  0.37770  0.38690  Biso   1.000  H
  C34      1.0000 0.15380  0.03060  0.47950  Biso   1.000  C
  H45      1.0000 0.15850  0.10540  0.53430  Biso   1.000  H
  H46      1.0000 0.16280  0.88050  0.49340  Biso   1.000  H
  C35      1.0000 0.21830  0.01010  0.35620  Biso   1.000  C
  H47      1.0000 0.20510  0.85980  0.35760  Biso   1.000  H
  H48      1.0000 0.17450  0.07720  0.31070  Biso   1.000  H
  C36      1.0000 0.22090  0.34430  0.43630  Biso   1.000  C
  H49      1.0000 0.23670  0.38680  0.38430  Biso   1.000  H
  H50      1.0000 0.16520  0.39550  0.42980  Biso   1.000  H
  N4       1.0000 0.22190  0.10770  0.44260  Biso   1.000  N
  O19      1.0000 0.31330  0.88760  0.25480  Biso   1.000  O
  O20      1.0000 0.38230  0.98920  0.41510  Biso   1.000  O
  O21      1.0000 0.32390  0.27030  0.30000  Biso   1.000  O
  H51      1.0000 0.36500  0.28390  0.28240  Biso   1.000  H
  O22      1.0000 0.36510  0.32050  0.55870  Biso   1.000  O
  O23      1.0000 0.30830  0.68740  0.50820  Biso   1.000  O
  O24      1.0000 0.24090  0.46270  0.60100  Biso   1.000  O
  H52      1.0000 0.26940  0.51340  0.64740  Biso   1.000  H
