data_image0
_cell_length_a       9.466
_cell_length_b       24.358
_cell_length_c       22.393
_cell_angle_alpha    90
_cell_angle_beta     91.74
_cell_angle_gamma    90

_symmetry_space_group_name_H-M    "P 1"
_symmetry_int_tables_number       1

loop_
  _symmetry_equiv_pos_as_xyz
  'x, y, z'

loop_
  _atom_site_label
  _atom_site_occupancy
  _atom_site_fract_x
  _atom_site_fract_y
  _atom_site_fract_z
  _atom_site_thermal_displace_type
  _atom_site_B_iso_or_equiv
  _atom_site_type_symbol
  Co1      1.0000 0.04678  0.87847  0.58245  Biso   1.000  Co
  C1       1.0000 0.67260  0.91510  0.49960  Biso   1.000  C
  C2       1.0000 0.80350  0.89810  0.53450  Biso   1.000  C
  O1       1.0000 0.92220  0.91884  0.51677  Biso   1.000  O
  O2       1.0000 0.80040  0.86563  0.57628  Biso   1.000  O
  C3       1.0000 0.53920  0.91180  0.52360  Biso   1.000  C
  H1       1.0000 0.52860  0.89620  0.56110  Biso   1.000  H
  C4       1.0000 0.42200  0.93150  0.49180  Biso   1.000  C
  C5       1.0000 0.27640  0.93290  0.51830  Biso   1.000  C
  O3       1.0000 0.25110  0.90154  0.56144  Biso   1.000  O
  O4       1.0000 0.19150  0.96519  0.49264  Biso   1.000  O
  C6       1.0000 0.43790  0.95370  0.43570  Biso   1.000  C
  H2       1.0000 0.35960  0.96760  0.41460  Biso   1.000  H
  C7       1.0000 0.56930  0.95550  0.41060  Biso   1.000  C
  C8       1.0000 0.59100  0.98070  0.35280  Biso   1.000  C
  N1       1.0000 0.61020  0.00280  0.30950  Biso   1.000  N
  C9       1.0000 0.68730  0.93600  0.44280  Biso   1.000  C
  H3       1.0000 0.77590  0.93710  0.42600  Biso   1.000  H
  C10      1.0000 0.00390  0.02060  0.69550  Biso   1.000  C
  C11      1.0000 0.01140  0.98920  0.63820  Biso   1.000  C
  O5       1.0000 0.00910  0.93790  0.64238  Biso   1.000  O
  O6       1.0000 0.02050  0.01708  0.59124  Biso   1.000  O
  C12      1.0000 0.00430  0.07710  0.69610  Biso   1.000  C
  H4       1.0000 0.00750  0.09670  0.66050  Biso   1.000  H
  Co2      1.0000 0.95322  0.87847  0.91755  Biso   1.000  Co
  C13      1.0000 0.32740  0.91510  0.00040  Biso   1.000  C
  C14      1.0000 0.19650  0.89810  0.96550  Biso   1.000  C
  O7       1.0000 0.07780  0.91884  0.98323  Biso   1.000  O
  O8       1.0000 0.19960  0.86563  0.92372  Biso   1.000  O
  C15      1.0000 0.46080  0.91180  0.97640  Biso   1.000  C
  H5       1.0000 0.47140  0.89620  0.93890  Biso   1.000  H
  C16      1.0000 0.57800  0.93150  0.00820  Biso   1.000  C
  C17      1.0000 0.72360  0.93290  0.98170  Biso   1.000  C
  O9       1.0000 0.74890  0.90154  0.93856  Biso   1.000  O
  O10      1.0000 0.80850  0.96519  0.00736  Biso   1.000  O
  C18      1.0000 0.56210  0.95370  0.06430  Biso   1.000  C
  H6       1.0000 0.64040  0.96760  0.08540  Biso   1.000  H
  C19      1.0000 0.43070  0.95550  0.08940  Biso   1.000  C
  C20      1.0000 0.40900  0.98070  0.14720  Biso   1.000  C
  N2       1.0000 0.38980  0.00280  0.19050  Biso   1.000  N
  C21      1.0000 0.31270  0.93600  0.05720  Biso   1.000  C
  H7       1.0000 0.22410  0.93710  0.07400  Biso   1.000  H
  C22      1.0000 0.99610  0.02060  0.80450  Biso   1.000  C
  C23      1.0000 0.98860  0.98920  0.86180  Biso   1.000  C
  O11      1.0000 0.99090  0.93790  0.85762  Biso   1.000  O
  O12      1.0000 0.97950  0.01708  0.90876  Biso   1.000  O
  C24      1.0000 0.99570  0.07710  0.80390  Biso   1.000  C
  H8       1.0000 0.99250  0.09670  0.83950  Biso   1.000  H
  Co3      1.0000 0.95322  0.12153  0.41755  Biso   1.000  Co
  C25      1.0000 0.32740  0.08490  0.50040  Biso   1.000  C
  C26      1.0000 0.19650  0.10190  0.46550  Biso   1.000  C
  O13      1.0000 0.07780  0.08116  0.48323  Biso   1.000  O
  O14      1.0000 0.19960  0.13437  0.42372  Biso   1.000  O
  C27      1.0000 0.46080  0.08820  0.47640  Biso   1.000  C
  H9       1.0000 0.47140  0.10380  0.43890  Biso   1.000  H
  C28      1.0000 0.57800  0.06850  0.50820  Biso   1.000  C
  C29      1.0000 0.72360  0.06710  0.48170  Biso   1.000  C
  O15      1.0000 0.74890  0.09846  0.43856  Biso   1.000  O
  O16      1.0000 0.80850  0.03481  0.50736  Biso   1.000  O
  C30      1.0000 0.56210  0.04630  0.56430  Biso   1.000  C
  H10      1.0000 0.64040  0.03240  0.58540  Biso   1.000  H
  C31      1.0000 0.43070  0.04450  0.58940  Biso   1.000  C
  C32      1.0000 0.40900  0.01930  0.64720  Biso   1.000  C
  N3       1.0000 0.38980  0.99720  0.69050  Biso   1.000  N
  C33      1.0000 0.31270  0.06400  0.55720  Biso   1.000  C
  H11      1.0000 0.22410  0.06290  0.57400  Biso   1.000  H
  C34      1.0000 0.99610  0.97940  0.30450  Biso   1.000  C
  C35      1.0000 0.98860  0.01080  0.36180  Biso   1.000  C
  O17      1.0000 0.99090  0.06210  0.35762  Biso   1.000  O
  O18      1.0000 0.97950  0.98292  0.40876  Biso   1.000  O
  C36      1.0000 0.99570  0.92290  0.30390  Biso   1.000  C
  H12      1.0000 0.99250  0.90330  0.33950  Biso   1.000  H
  Co4      1.0000 0.04678  0.12153  0.08245  Biso   1.000  Co
  C37      1.0000 0.67260  0.08490  0.99960  Biso   1.000  C
  C38      1.0000 0.80350  0.10190  0.03450  Biso   1.000  C
  O19      1.0000 0.92220  0.08116  0.01677  Biso   1.000  O
  O20      1.0000 0.80040  0.13437  0.07628  Biso   1.000  O
  C39      1.0000 0.53920  0.08820  0.02360  Biso   1.000  C
  H13      1.0000 0.52860  0.10380  0.06110  Biso   1.000  H
  C40      1.0000 0.42200  0.06850  0.99180  Biso   1.000  C
  C41      1.0000 0.27640  0.06710  0.01830  Biso   1.000  C
  O21      1.0000 0.25110  0.09846  0.06144  Biso   1.000  O
  O22      1.0000 0.19150  0.03481  0.99264  Biso   1.000  O
  C42      1.0000 0.43790  0.04630  0.93570  Biso   1.000  C
  H14      1.0000 0.35960  0.03240  0.91460  Biso   1.000  H
  C43      1.0000 0.56930  0.04450  0.91060  Biso   1.000  C
  C44      1.0000 0.59100  0.01930  0.85280  Biso   1.000  C
  N4       1.0000 0.61020  0.99720  0.80950  Biso   1.000  N
  C45      1.0000 0.68730  0.06400  0.94280  Biso   1.000  C
  H15      1.0000 0.77590  0.06290  0.92600  Biso   1.000  H
  C46      1.0000 0.00390  0.97940  0.19550  Biso   1.000  C
  C47      1.0000 0.01140  0.01080  0.13820  Biso   1.000  C
  O23      1.0000 0.00910  0.06210  0.14238  Biso   1.000  O
  O24      1.0000 0.02050  0.98292  0.09124  Biso   1.000  O
  C48      1.0000 0.00430  0.92290  0.19610  Biso   1.000  C
  H16      1.0000 0.00750  0.90330  0.16050  Biso   1.000  H
  Co5      1.0000 0.00000  0.00000  0.50000  Biso   1.000  Co
  Co6      1.0000 0.00000  0.00000  0.00000  Biso   1.000  Co
  C49      1.0000 0.00000  0.99240  0.75000  Biso   1.000  C
  H17      1.0000 0.00000  0.95430  0.75000  Biso   1.000  H
  C50      1.0000 0.00000  0.10420  0.75000  Biso   1.000  C
  C51      1.0000 0.00000  0.16370  0.75000  Biso   1.000  C
  N5       1.0000 0.00000  0.21070  0.75000  Biso   1.000  N
  C52      1.0000 0.00000  0.00760  0.25000  Biso   1.000  C
  H18      1.0000 0.00000  0.04570  0.25000  Biso   1.000  H
  C53      1.0000 0.00000  0.89580  0.25000  Biso   1.000  C
  C54      1.0000 0.00000  0.83630  0.25000  Biso   1.000  C
  N6       1.0000 0.00000  0.78930  0.25000  Biso   1.000  N
  Co7      1.0000 0.54678  0.37847  0.58245  Biso   1.000  Co
  C55      1.0000 0.17260  0.41510  0.49960  Biso   1.000  C
  C56      1.0000 0.30350  0.39810  0.53450  Biso   1.000  C
  O25      1.0000 0.42220  0.41884  0.51677  Biso   1.000  O
  O26      1.0000 0.30040  0.36563  0.57628  Biso   1.000  O
  C57      1.0000 0.03920  0.41180  0.52360  Biso   1.000  C
  H19      1.0000 0.02860  0.39620  0.56110  Biso   1.000  H
  C58      1.0000 0.92200  0.43150  0.49180  Biso   1.000  C
  C59      1.0000 0.77640  0.43290  0.51830  Biso   1.000  C
  O27      1.0000 0.75110  0.40154  0.56144  Biso   1.000  O
  O28      1.0000 0.69150  0.46519  0.49264  Biso   1.000  O
  C60      1.0000 0.93790  0.45370  0.43570  Biso   1.000  C
  H20      1.0000 0.85960  0.46760  0.41460  Biso   1.000  H
  C61      1.0000 0.06930  0.45550  0.41060  Biso   1.000  C
  C62      1.0000 0.09100  0.48070  0.35280  Biso   1.000  C
  N7       1.0000 0.11020  0.50280  0.30950  Biso   1.000  N
  C63      1.0000 0.18730  0.43600  0.44280  Biso   1.000  C
  H21      1.0000 0.27590  0.43710  0.42600  Biso   1.000  H
  C64      1.0000 0.50390  0.52060  0.69550  Biso   1.000  C
  C65      1.0000 0.51140  0.48920  0.63820  Biso   1.000  C
  O29      1.0000 0.50910  0.43790  0.64238  Biso   1.000  O
  O30      1.0000 0.52050  0.51708  0.59124  Biso   1.000  O
  C66      1.0000 0.50430  0.57710  0.69610  Biso   1.000  C
  H22      1.0000 0.50750  0.59670  0.66050  Biso   1.000  H
  Co8      1.0000 0.45322  0.37847  0.91755  Biso   1.000  Co
  C67      1.0000 0.82740  0.41510  0.00040  Biso   1.000  C
  C68      1.0000 0.69650  0.39810  0.96550  Biso   1.000  C
  O31      1.0000 0.57780  0.41884  0.98323  Biso   1.000  O
  O32      1.0000 0.69960  0.36563  0.92372  Biso   1.000  O
  C69      1.0000 0.96080  0.41180  0.97640  Biso   1.000  C
  H23      1.0000 0.97140  0.39620  0.93890  Biso   1.000  H
  C70      1.0000 0.07800  0.43150  0.00820  Biso   1.000  C
  C71      1.0000 0.22360  0.43290  0.98170  Biso   1.000  C
  O33      1.0000 0.24890  0.40154  0.93856  Biso   1.000  O
  O34      1.0000 0.30850  0.46519  0.00736  Biso   1.000  O
  C72      1.0000 0.06210  0.45370  0.06430  Biso   1.000  C
  H24      1.0000 0.14040  0.46760  0.08540  Biso   1.000  H
  C73      1.0000 0.93070  0.45550  0.08940  Biso   1.000  C
  C74      1.0000 0.90900  0.48070  0.14720  Biso   1.000  C
  N8       1.0000 0.88980  0.50280  0.19050  Biso   1.000  N
  C75      1.0000 0.81270  0.43600  0.05720  Biso   1.000  C
  H25      1.0000 0.72410  0.43710  0.07400  Biso   1.000  H
  C76      1.0000 0.49610  0.52060  0.80450  Biso   1.000  C
  C77      1.0000 0.48860  0.48920  0.86180  Biso   1.000  C
  O35      1.0000 0.49090  0.43790  0.85762  Biso   1.000  O
  O36      1.0000 0.47950  0.51708  0.90876  Biso   1.000  O
  C78      1.0000 0.49570  0.57710  0.80390  Biso   1.000  C
  H26      1.0000 0.49250  0.59670  0.83950  Biso   1.000  H
  Co9      1.0000 0.45322  0.62153  0.41755  Biso   1.000  Co
  C79      1.0000 0.82740  0.58490  0.50040  Biso   1.000  C
  C80      1.0000 0.69650  0.60190  0.46550  Biso   1.000  C
  O37      1.0000 0.57780  0.58116  0.48323  Biso   1.000  O
  O38      1.0000 0.69960  0.63437  0.42372  Biso   1.000  O
  C81      1.0000 0.96080  0.58820  0.47640  Biso   1.000  C
  H27      1.0000 0.97140  0.60380  0.43890  Biso   1.000  H
  C82      1.0000 0.07800  0.56850  0.50820  Biso   1.000  C
  C83      1.0000 0.22360  0.56710  0.48170  Biso   1.000  C
  O39      1.0000 0.24890  0.59846  0.43856  Biso   1.000  O
  O40      1.0000 0.30850  0.53481  0.50736  Biso   1.000  O
  C84      1.0000 0.06210  0.54630  0.56430  Biso   1.000  C
  H28      1.0000 0.14040  0.53240  0.58540  Biso   1.000  H
  C85      1.0000 0.93070  0.54450  0.58940  Biso   1.000  C
  C86      1.0000 0.90900  0.51930  0.64720  Biso   1.000  C
  N9       1.0000 0.88980  0.49720  0.69050  Biso   1.000  N
  C87      1.0000 0.81270  0.56400  0.55720  Biso   1.000  C
  H29      1.0000 0.72410  0.56290  0.57400  Biso   1.000  H
  C88      1.0000 0.49610  0.47940  0.30450  Biso   1.000  C
  C89      1.0000 0.48860  0.51080  0.36180  Biso   1.000  C
  O41      1.0000 0.49090  0.56210  0.35762  Biso   1.000  O
  O42      1.0000 0.47950  0.48292  0.40876  Biso   1.000  O
  C90      1.0000 0.49570  0.42290  0.30390  Biso   1.000  C
  H30      1.0000 0.49250  0.40330  0.33950  Biso   1.000  H
  Co10     1.0000 0.54678  0.62153  0.08245  Biso   1.000  Co
  C91      1.0000 0.17260  0.58490  0.99960  Biso   1.000  C
  C92      1.0000 0.30350  0.60190  0.03450  Biso   1.000  C
  O43      1.0000 0.42220  0.58116  0.01677  Biso   1.000  O
  O44      1.0000 0.30040  0.63437  0.07628  Biso   1.000  O
  C93      1.0000 0.03920  0.58820  0.02360  Biso   1.000  C
  H31      1.0000 0.02860  0.60380  0.06110  Biso   1.000  H
  C94      1.0000 0.92200  0.56850  0.99180  Biso   1.000  C
  C95      1.0000 0.77640  0.56710  0.01830  Biso   1.000  C
  O45      1.0000 0.75110  0.59846  0.06144  Biso   1.000  O
  O46      1.0000 0.69150  0.53481  0.99264  Biso   1.000  O
  C96      1.0000 0.93790  0.54630  0.93570  Biso   1.000  C
  H32      1.0000 0.85960  0.53240  0.91460  Biso   1.000  H
  C97      1.0000 0.06930  0.54450  0.91060  Biso   1.000  C
  C98      1.0000 0.09100  0.51930  0.85280  Biso   1.000  C
  N10      1.0000 0.11020  0.49720  0.80950  Biso   1.000  N
  C99      1.0000 0.18730  0.56400  0.94280  Biso   1.000  C
  H33      1.0000 0.27590  0.56290  0.92600  Biso   1.000  H
  C100     1.0000 0.50390  0.47940  0.19550  Biso   1.000  C
  C101     1.0000 0.51140  0.51080  0.13820  Biso   1.000  C
  O47      1.0000 0.50910  0.56210  0.14238  Biso   1.000  O
  O48      1.0000 0.52050  0.48292  0.09124  Biso   1.000  O
  C102     1.0000 0.50430  0.42290  0.19610  Biso   1.000  C
  H34      1.0000 0.50750  0.40330  0.16050  Biso   1.000  H
  Co11     1.0000 0.50000  0.50000  0.50000  Biso   1.000  Co
  Co12     1.0000 0.50000  0.50000  0.00000  Biso   1.000  Co
  C103     1.0000 0.50000  0.49240  0.75000  Biso   1.000  C
  H35      1.0000 0.50000  0.45430  0.75000  Biso   1.000  H
  C104     1.0000 0.50000  0.60420  0.75000  Biso   1.000  C
  C105     1.0000 0.50000  0.66370  0.75000  Biso   1.000  C
  N11      1.0000 0.50000  0.71070  0.75000  Biso   1.000  N
  C106     1.0000 0.50000  0.50760  0.25000  Biso   1.000  C
  H36      1.0000 0.50000  0.54570  0.25000  Biso   1.000  H
  C107     1.0000 0.50000  0.39580  0.25000  Biso   1.000  C
  C108     1.0000 0.50000  0.33630  0.25000  Biso   1.000  C
  N12      1.0000 0.50000  0.28930  0.25000  Biso   1.000  N
