data_image0
_cell_length_a       15.5705
_cell_length_b       22.3823
_cell_length_c       27.2969
_cell_angle_alpha    90
_cell_angle_beta     101.102
_cell_angle_gamma    90

_symmetry_space_group_name_H-M    "P 1"
_symmetry_int_tables_number       1

loop_
  _symmetry_equiv_pos_as_xyz
  'x, y, z'

loop_
  _atom_site_label
  _atom_site_occupancy
  _atom_site_fract_x
  _atom_site_fract_y
  _atom_site_fract_z
  _atom_site_thermal_displace_type
  _atom_site_B_iso_or_equiv
  _atom_site_type_symbol
  Cu1      1.0000 0.00328  0.00062  0.38883  Biso   1.000  Cu
  Cu2      1.0000 0.83525  0.04576  0.42438  Biso   1.000  Cu
  Cu3      1.0000 0.83299  0.04742  0.53721  Biso   1.000  Cu
  O1       1.0000 0.07750  0.01900  0.45230  Biso   1.000  O
  H1       1.0000 0.10410  0.05180  0.45530  Biso   1.000  H
  O2       1.0000 0.92450  0.98120  0.43530  Biso   1.000  O
  H2       1.0000 0.89720  0.95110  0.43160  Biso   1.000  H
  O3       1.0000 0.90690  0.06960  0.48950  Biso   1.000  O
  H3       1.0000 0.91530  0.10410  0.49020  Biso   1.000  H
  N1       1.0000 0.66550  0.98120  0.29720  Biso   1.000  N
  C1       1.0000 0.69750  0.00960  0.33760  Biso   1.000  C
  H4       1.0000 0.65850  0.02810  0.35460  Biso   1.000  H
  N2       1.0000 0.78050  0.01410  0.35630  Biso   1.000  N
  C2       1.0000 0.82550  0.98570  0.32540  Biso   1.000  C
  C3       1.0000 0.80200  0.95030  0.28280  Biso   1.000  C
  C4       1.0000 0.72100  0.94900  0.26500  Biso   1.000  C
  N3       1.0000 0.65900  0.92800  0.22550  Biso   1.000  N
  H5       1.0000 0.67480  0.90690  0.20250  Biso   1.000  H
  H6       1.0000 0.60480  0.93640  0.22410  Biso   1.000  H
  C5       1.0000 0.76700  0.96300  0.28620  Biso   1.000  C
  C6       1.0000 0.78300  0.93300  0.25400  Biso   1.000  C
  N4       1.0000 0.71100  0.91100  0.21300  Biso   1.000  N
  H7       1.0000 0.65780  0.91970  0.21360  Biso   1.000  H
  H8       1.0000 0.72370  0.88920  0.18930  Biso   1.000  H
  N5       1.0000 0.85630  0.92950  0.25720  Biso   1.000  N
  C7       1.0000 0.92850  0.94160  0.29240  Biso   1.000  C
  H9       1.0000 0.98300  0.92550  0.29080  Biso   1.000  H
  N6       1.0000 0.91680  0.97860  0.33000  Biso   1.000  N
  N7       1.0000 0.66450  0.19520  0.53180  Biso   1.000  N
  C8       1.0000 0.71120  0.14990  0.54190  Biso   1.000  C
  H10      1.0000 0.72290  0.13940  0.57550  Biso   1.000  H
  N8       1.0000 0.74630  0.11470  0.51300  Biso   1.000  N
  C9       1.0000 0.73120  0.13490  0.46620  Biso   1.000  C
  C10      1.0000 0.67740  0.18400  0.45780  Biso   1.000  C
  C11      1.0000 0.64100  0.21660  0.48060  Biso   1.000  C
  N9       1.0000 0.59320  0.26590  0.47400  Biso   1.000  N
  H11      1.0000 0.58090  0.28230  0.44500  Biso   1.000  H
  H12      1.0000 0.57410  0.28130  0.49870  Biso   1.000  H
  N10      1.0000 0.67160  0.19960  0.39950  Biso   1.000  N
  C12      1.0000 0.71870  0.14920  0.38750  Biso   1.000  C
  H13      1.0000 0.72500  0.14110  0.35500  Biso   1.000  H
  N11      1.0000 0.75360  0.11380  0.42590  Biso   1.000  N
  N12      1.0000 0.14010  0.07760  0.28630  Biso   1.000  N
  C13      1.0000 0.07980  0.05380  0.30920  Biso   1.000  C
  H14      1.0000 0.02140  0.05960  0.29450  Biso   1.000  H
  N13      1.0000 0.09630  0.02270  0.35090  Biso   1.000  N
  C14      1.0000 0.18350  0.01470  0.36740  Biso   1.000  C
  C15      1.0000 0.25400  0.03710  0.34700  Biso   1.000  C
  C16      1.0000 0.23100  0.06890  0.30280  Biso   1.000  C
  N14      1.0000 0.28960  0.09130  0.28090  Biso   1.000  N
  H15      1.0000 0.34410  0.08670  0.29370  Biso   1.000  H
  H16      1.0000 0.27420  0.11090  0.25350  Biso   1.000  H
  N15      1.0000 0.33320  0.02150  0.37250  Biso   1.000  N
  C17      1.0000 0.30790  0.99240  0.40920  Biso   1.000  C
  H17      1.0000 0.35040  0.97770  0.43500  Biso   1.000  H
  N16      1.0000 0.22470  0.98330  0.41090  Biso   1.000  N
  Cu4      1.0000 0.99672  0.99938  0.61117  Biso   1.000  Cu
  Cu5      1.0000 0.16475  0.95424  0.57562  Biso   1.000  Cu
  Cu6      1.0000 0.16701  0.95258  0.46279  Biso   1.000  Cu
  O4       1.0000 0.92250  0.98100  0.54770  Biso   1.000  O
  H18      1.0000 0.89590  0.94820  0.54470  Biso   1.000  H
  O5       1.0000 0.07550  0.01880  0.56470  Biso   1.000  O
  H19      1.0000 0.10280  0.04890  0.56840  Biso   1.000  H
  O6       1.0000 0.09310  0.93040  0.51050  Biso   1.000  O
  H20      1.0000 0.08470  0.89590  0.50980  Biso   1.000  H
  N17      1.0000 0.33450  0.01880  0.70280  Biso   1.000  N
  C18      1.0000 0.30250  0.99040  0.66240  Biso   1.000  C
  H21      1.0000 0.34150  0.97190  0.64540  Biso   1.000  H
  N18      1.0000 0.21950  0.98590  0.64370  Biso   1.000  N
  C19      1.0000 0.17450  0.01430  0.67460  Biso   1.000  C
  C20      1.0000 0.19800  0.04970  0.71720  Biso   1.000  C
  C21      1.0000 0.27900  0.05100  0.73500  Biso   1.000  C
  N19      1.0000 0.34100  0.07200  0.77450  Biso   1.000  N
  H22      1.0000 0.32520  0.09310  0.79750  Biso   1.000  H
  H23      1.0000 0.39520  0.06360  0.77590  Biso   1.000  H
  C22      1.0000 0.23300  0.03700  0.71380  Biso   1.000  C
  C23      1.0000 0.21700  0.06700  0.74600  Biso   1.000  C
  N20      1.0000 0.28900  0.08900  0.78700  Biso   1.000  N
  H24      1.0000 0.34220  0.08030  0.78640  Biso   1.000  H
  H25      1.0000 0.27630  0.11080  0.81070  Biso   1.000  H
  N21      1.0000 0.14370  0.07050  0.74280  Biso   1.000  N
  C24      1.0000 0.07150  0.05840  0.70760  Biso   1.000  C
  H26      1.0000 0.01700  0.07450  0.70920  Biso   1.000  H
  N22      1.0000 0.08320  0.02140  0.67000  Biso   1.000  N
  N23      1.0000 0.33550  0.80480  0.46820  Biso   1.000  N
  C25      1.0000 0.28880  0.85010  0.45810  Biso   1.000  C
  H27      1.0000 0.27710  0.86060  0.42450  Biso   1.000  H
  N24      1.0000 0.25370  0.88530  0.48700  Biso   1.000  N
  C26      1.0000 0.26880  0.86510  0.53380  Biso   1.000  C
  C27      1.0000 0.32260  0.81600  0.54220  Biso   1.000  C
  C28      1.0000 0.35900  0.78340  0.51940  Biso   1.000  C
  N25      1.0000 0.40680  0.73410  0.52600  Biso   1.000  N
  H28      1.0000 0.41910  0.71770  0.55500  Biso   1.000  H
  H29      1.0000 0.42590  0.71870  0.50130  Biso   1.000  H
  N26      1.0000 0.32840  0.80040  0.60050  Biso   1.000  N
  C29      1.0000 0.28130  0.85080  0.61250  Biso   1.000  C
  H30      1.0000 0.27500  0.85890  0.64500  Biso   1.000  H
  N27      1.0000 0.24640  0.88620  0.57410  Biso   1.000  N
  N28      1.0000 0.85990  0.92240  0.71370  Biso   1.000  N
  C30      1.0000 0.92020  0.94620  0.69080  Biso   1.000  C
  H31      1.0000 0.97860  0.94040  0.70550  Biso   1.000  H
  N29      1.0000 0.90370  0.97730  0.64910  Biso   1.000  N
  C31      1.0000 0.81650  0.98530  0.63260  Biso   1.000  C
  C32      1.0000 0.74600  0.96290  0.65300  Biso   1.000  C
  C33      1.0000 0.76900  0.93110  0.69720  Biso   1.000  C
  N30      1.0000 0.71040  0.90870  0.71910  Biso   1.000  N
  H32      1.0000 0.65590  0.91330  0.70630  Biso   1.000  H
  H33      1.0000 0.72580  0.88910  0.74650  Biso   1.000  H
  N31      1.0000 0.66680  0.97850  0.62750  Biso   1.000  N
  C34      1.0000 0.69210  0.00760  0.59080  Biso   1.000  C
  H34      1.0000 0.64960  0.02230  0.56500  Biso   1.000  H
  N32      1.0000 0.77530  0.01670  0.58910  Biso   1.000  N
  Cu7      1.0000 0.00000  0.00000  0.50000  Biso   1.000  Cu
  Cu8      1.0000 0.50328  0.50062  0.38883  Biso   1.000  Cu
  Cu9      1.0000 0.33525  0.54576  0.42438  Biso   1.000  Cu
  Cu10     1.0000 0.33299  0.54742  0.53721  Biso   1.000  Cu
  O7       1.0000 0.57750  0.51900  0.45230  Biso   1.000  O
  H35      1.0000 0.60410  0.55180  0.45530  Biso   1.000  H
  O8       1.0000 0.42450  0.48120  0.43530  Biso   1.000  O
  H36      1.0000 0.39720  0.45110  0.43160  Biso   1.000  H
  O9       1.0000 0.40690  0.56960  0.48950  Biso   1.000  O
  H37      1.0000 0.41530  0.60410  0.49020  Biso   1.000  H
  N33      1.0000 0.16550  0.48120  0.29720  Biso   1.000  N
  C35      1.0000 0.19750  0.50960  0.33760  Biso   1.000  C
  H38      1.0000 0.15850  0.52810  0.35460  Biso   1.000  H
  N34      1.0000 0.28050  0.51410  0.35630  Biso   1.000  N
  C36      1.0000 0.32550  0.48570  0.32540  Biso   1.000  C
  C37      1.0000 0.30200  0.45030  0.28280  Biso   1.000  C
  C38      1.0000 0.22100  0.44900  0.26500  Biso   1.000  C
  N35      1.0000 0.15900  0.42800  0.22550  Biso   1.000  N
  H39      1.0000 0.17480  0.40690  0.20250  Biso   1.000  H
  H40      1.0000 0.10480  0.43640  0.22410  Biso   1.000  H
  C39      1.0000 0.26700  0.46300  0.28620  Biso   1.000  C
  C40      1.0000 0.28300  0.43300  0.25400  Biso   1.000  C
  N36      1.0000 0.21100  0.41100  0.21300  Biso   1.000  N
  H41      1.0000 0.15780  0.41970  0.21360  Biso   1.000  H
  H42      1.0000 0.22370  0.38920  0.18930  Biso   1.000  H
  N37      1.0000 0.35630  0.42950  0.25720  Biso   1.000  N
  C41      1.0000 0.42850  0.44160  0.29240  Biso   1.000  C
  H43      1.0000 0.48300  0.42550  0.29080  Biso   1.000  H
  N38      1.0000 0.41680  0.47860  0.33000  Biso   1.000  N
  N39      1.0000 0.16450  0.69520  0.53180  Biso   1.000  N
  C42      1.0000 0.21120  0.64990  0.54190  Biso   1.000  C
  H44      1.0000 0.22290  0.63940  0.57550  Biso   1.000  H
  N40      1.0000 0.24630  0.61470  0.51300  Biso   1.000  N
  C43      1.0000 0.23120  0.63490  0.46620  Biso   1.000  C
  C44      1.0000 0.17740  0.68400  0.45780  Biso   1.000  C
  C45      1.0000 0.14100  0.71660  0.48060  Biso   1.000  C
  N41      1.0000 0.09320  0.76590  0.47400  Biso   1.000  N
  H45      1.0000 0.08090  0.78230  0.44500  Biso   1.000  H
  H46      1.0000 0.07410  0.78130  0.49870  Biso   1.000  H
  N42      1.0000 0.17160  0.69960  0.39950  Biso   1.000  N
  C46      1.0000 0.21870  0.64920  0.38750  Biso   1.000  C
  H47      1.0000 0.22500  0.64110  0.35500  Biso   1.000  H
  N43      1.0000 0.25360  0.61380  0.42590  Biso   1.000  N
  N44      1.0000 0.64010  0.57760  0.28630  Biso   1.000  N
  C47      1.0000 0.57980  0.55380  0.30920  Biso   1.000  C
  H48      1.0000 0.52140  0.55960  0.29450  Biso   1.000  H
  N45      1.0000 0.59630  0.52270  0.35090  Biso   1.000  N
  C48      1.0000 0.68350  0.51470  0.36740  Biso   1.000  C
  C49      1.0000 0.75400  0.53710  0.34700  Biso   1.000  C
  C50      1.0000 0.73100  0.56890  0.30280  Biso   1.000  C
  N46      1.0000 0.78960  0.59130  0.28090  Biso   1.000  N
  H49      1.0000 0.84410  0.58670  0.29370  Biso   1.000  H
  H50      1.0000 0.77420  0.61090  0.25350  Biso   1.000  H
  N47      1.0000 0.83320  0.52150  0.37250  Biso   1.000  N
  C51      1.0000 0.80790  0.49240  0.40920  Biso   1.000  C
  H51      1.0000 0.85040  0.47770  0.43500  Biso   1.000  H
  N48      1.0000 0.72470  0.48330  0.41090  Biso   1.000  N
  Cu11     1.0000 0.49672  0.49938  0.61117  Biso   1.000  Cu
  Cu12     1.0000 0.66475  0.45424  0.57562  Biso   1.000  Cu
  Cu13     1.0000 0.66701  0.45258  0.46279  Biso   1.000  Cu
  O10      1.0000 0.42250  0.48100  0.54770  Biso   1.000  O
  H52      1.0000 0.39590  0.44820  0.54470  Biso   1.000  H
  O11      1.0000 0.57550  0.51880  0.56470  Biso   1.000  O
  H53      1.0000 0.60280  0.54890  0.56840  Biso   1.000  H
  O12      1.0000 0.59310  0.43040  0.51050  Biso   1.000  O
  H54      1.0000 0.58470  0.39590  0.50980  Biso   1.000  H
  N49      1.0000 0.83450  0.51880  0.70280  Biso   1.000  N
  C52      1.0000 0.80250  0.49040  0.66240  Biso   1.000  C
  H55      1.0000 0.84150  0.47190  0.64540  Biso   1.000  H
  N50      1.0000 0.71950  0.48590  0.64370  Biso   1.000  N
  C53      1.0000 0.67450  0.51430  0.67460  Biso   1.000  C
  C54      1.0000 0.69800  0.54970  0.71720  Biso   1.000  C
  C55      1.0000 0.77900  0.55100  0.73500  Biso   1.000  C
  N51      1.0000 0.84100  0.57200  0.77450  Biso   1.000  N
  H56      1.0000 0.82520  0.59310  0.79750  Biso   1.000  H
  H57      1.0000 0.89520  0.56360  0.77590  Biso   1.000  H
  C56      1.0000 0.73300  0.53700  0.71380  Biso   1.000  C
  C57      1.0000 0.71700  0.56700  0.74600  Biso   1.000  C
  N52      1.0000 0.78900  0.58900  0.78700  Biso   1.000  N
  H58      1.0000 0.84220  0.58030  0.78640  Biso   1.000  H
  H59      1.0000 0.77630  0.61080  0.81070  Biso   1.000  H
  N53      1.0000 0.64370  0.57050  0.74280  Biso   1.000  N
  C58      1.0000 0.57150  0.55840  0.70760  Biso   1.000  C
  H60      1.0000 0.51700  0.57450  0.70920  Biso   1.000  H
  N54      1.0000 0.58320  0.52140  0.67000  Biso   1.000  N
  N55      1.0000 0.83550  0.30480  0.46820  Biso   1.000  N
  C59      1.0000 0.78880  0.35010  0.45810  Biso   1.000  C
  H61      1.0000 0.77710  0.36060  0.42450  Biso   1.000  H
  N56      1.0000 0.75370  0.38530  0.48700  Biso   1.000  N
  C60      1.0000 0.76880  0.36510  0.53380  Biso   1.000  C
  C61      1.0000 0.82260  0.31600  0.54220  Biso   1.000  C
  C62      1.0000 0.85900  0.28340  0.51940  Biso   1.000  C
  N57      1.0000 0.90680  0.23410  0.52600  Biso   1.000  N
  H62      1.0000 0.91910  0.21770  0.55500  Biso   1.000  H
  H63      1.0000 0.92590  0.21870  0.50130  Biso   1.000  H
  N58      1.0000 0.82840  0.30040  0.60050  Biso   1.000  N
  C63      1.0000 0.78130  0.35080  0.61250  Biso   1.000  C
  H64      1.0000 0.77500  0.35890  0.64500  Biso   1.000  H
  N59      1.0000 0.74640  0.38620  0.57410  Biso   1.000  N
  N60      1.0000 0.35990  0.42240  0.71370  Biso   1.000  N
  C64      1.0000 0.42020  0.44620  0.69080  Biso   1.000  C
  H65      1.0000 0.47860  0.44040  0.70550  Biso   1.000  H
  N61      1.0000 0.40370  0.47730  0.64910  Biso   1.000  N
  C65      1.0000 0.31650  0.48530  0.63260  Biso   1.000  C
  C66      1.0000 0.24600  0.46290  0.65300  Biso   1.000  C
  C67      1.0000 0.26900  0.43110  0.69720  Biso   1.000  C
  N62      1.0000 0.21040  0.40870  0.71910  Biso   1.000  N
  H66      1.0000 0.15590  0.41330  0.70630  Biso   1.000  H
  H67      1.0000 0.22580  0.38910  0.74650  Biso   1.000  H
  N63      1.0000 0.16680  0.47850  0.62750  Biso   1.000  N
  C68      1.0000 0.19210  0.50760  0.59080  Biso   1.000  C
  H68      1.0000 0.14960  0.52230  0.56500  Biso   1.000  H
  N64      1.0000 0.27530  0.51670  0.58910  Biso   1.000  N
  Cu14     1.0000 0.50000  0.50000  0.50000  Biso   1.000  Cu
  Cu15     1.0000 0.99672  0.00062  0.11117  Biso   1.000  Cu
  Cu16     1.0000 0.16475  0.04576  0.07562  Biso   1.000  Cu
  Cu17     1.0000 0.16701  0.04742  0.96279  Biso   1.000  Cu
  O13      1.0000 0.92250  0.01900  0.04770  Biso   1.000  O
  H69      1.0000 0.89590  0.05180  0.04470  Biso   1.000  H
  O14      1.0000 0.07550  0.98120  0.06470  Biso   1.000  O
  H70      1.0000 0.10280  0.95110  0.06840  Biso   1.000  H
  O15      1.0000 0.09310  0.06960  0.01050  Biso   1.000  O
  H71      1.0000 0.08470  0.10410  0.00980  Biso   1.000  H
  N65      1.0000 0.33450  0.98120  0.20280  Biso   1.000  N
  C69      1.0000 0.30250  0.00960  0.16240  Biso   1.000  C
  H72      1.0000 0.34150  0.02810  0.14540  Biso   1.000  H
  N66      1.0000 0.21950  0.01410  0.14370  Biso   1.000  N
  C70      1.0000 0.17450  0.98570  0.17460  Biso   1.000  C
  C71      1.0000 0.19800  0.95030  0.21720  Biso   1.000  C
  C72      1.0000 0.27900  0.94900  0.23500  Biso   1.000  C
  N67      1.0000 0.34100  0.92800  0.27450  Biso   1.000  N
  H73      1.0000 0.32520  0.90690  0.29750  Biso   1.000  H
  H74      1.0000 0.39520  0.93640  0.27590  Biso   1.000  H
  C73      1.0000 0.23300  0.96300  0.21380  Biso   1.000  C
  C74      1.0000 0.21700  0.93300  0.24600  Biso   1.000  C
  N68      1.0000 0.28900  0.91100  0.28700  Biso   1.000  N
  H75      1.0000 0.34220  0.91970  0.28640  Biso   1.000  H
  H76      1.0000 0.27630  0.88920  0.31070  Biso   1.000  H
  N69      1.0000 0.14370  0.92950  0.24280  Biso   1.000  N
  C75      1.0000 0.07150  0.94160  0.20760  Biso   1.000  C
  H77      1.0000 0.01700  0.92550  0.20920  Biso   1.000  H
  N70      1.0000 0.08320  0.97860  0.17000  Biso   1.000  N
  N71      1.0000 0.33550  0.19520  0.96820  Biso   1.000  N
  C76      1.0000 0.28880  0.14990  0.95810  Biso   1.000  C
  H78      1.0000 0.27710  0.13940  0.92450  Biso   1.000  H
  N72      1.0000 0.25370  0.11470  0.98700  Biso   1.000  N
  C77      1.0000 0.26880  0.13490  0.03380  Biso   1.000  C
  C78      1.0000 0.32260  0.18400  0.04220  Biso   1.000  C
  C79      1.0000 0.35900  0.21660  0.01940  Biso   1.000  C
  N73      1.0000 0.40680  0.26590  0.02600  Biso   1.000  N
  H79      1.0000 0.41910  0.28230  0.05500  Biso   1.000  H
  H80      1.0000 0.42590  0.28130  0.00130  Biso   1.000  H
  N74      1.0000 0.32840  0.19960  0.10050  Biso   1.000  N
  C80      1.0000 0.28130  0.14920  0.11250  Biso   1.000  C
  H81      1.0000 0.27500  0.14110  0.14500  Biso   1.000  H
  N75      1.0000 0.24640  0.11380  0.07410  Biso   1.000  N
  N76      1.0000 0.85990  0.07760  0.21370  Biso   1.000  N
  C81      1.0000 0.92020  0.05380  0.19080  Biso   1.000  C
  H82      1.0000 0.97860  0.05960  0.20550  Biso   1.000  H
  N77      1.0000 0.90370  0.02270  0.14910  Biso   1.000  N
  C82      1.0000 0.81650  0.01470  0.13260  Biso   1.000  C
  C83      1.0000 0.74600  0.03710  0.15300  Biso   1.000  C
  C84      1.0000 0.76900  0.06890  0.19720  Biso   1.000  C
  N78      1.0000 0.71040  0.09130  0.21910  Biso   1.000  N
  H83      1.0000 0.65590  0.08670  0.20630  Biso   1.000  H
  H84      1.0000 0.72580  0.11090  0.24650  Biso   1.000  H
  N79      1.0000 0.66680  0.02150  0.12750  Biso   1.000  N
  C85      1.0000 0.69210  0.99240  0.09080  Biso   1.000  C
  H85      1.0000 0.64960  0.97770  0.06500  Biso   1.000  H
  N80      1.0000 0.77530  0.98330  0.08910  Biso   1.000  N
  Cu18     1.0000 0.00328  0.99938  0.88883  Biso   1.000  Cu
  Cu19     1.0000 0.83525  0.95424  0.92438  Biso   1.000  Cu
  Cu20     1.0000 0.83299  0.95258  0.03721  Biso   1.000  Cu
  O16      1.0000 0.07750  0.98100  0.95230  Biso   1.000  O
  H86      1.0000 0.10410  0.94820  0.95530  Biso   1.000  H
  O17      1.0000 0.92450  0.01880  0.93530  Biso   1.000  O
  H87      1.0000 0.89720  0.04890  0.93160  Biso   1.000  H
  O18      1.0000 0.90690  0.93040  0.98950  Biso   1.000  O
  H88      1.0000 0.91530  0.89590  0.99020  Biso   1.000  H
  N81      1.0000 0.66550  0.01880  0.79720  Biso   1.000  N
  C86      1.0000 0.69750  0.99040  0.83760  Biso   1.000  C
  H89      1.0000 0.65850  0.97190  0.85460  Biso   1.000  H
  N82      1.0000 0.78050  0.98590  0.85630  Biso   1.000  N
  C87      1.0000 0.82550  0.01430  0.82540  Biso   1.000  C
  C88      1.0000 0.80200  0.04970  0.78280  Biso   1.000  C
  C89      1.0000 0.72100  0.05100  0.76500  Biso   1.000  C
  N83      1.0000 0.65900  0.07200  0.72550  Biso   1.000  N
  H90      1.0000 0.67480  0.09310  0.70250  Biso   1.000  H
  H91      1.0000 0.60480  0.06360  0.72410  Biso   1.000  H
  C90      1.0000 0.76700  0.03700  0.78620  Biso   1.000  C
  C91      1.0000 0.78300  0.06700  0.75400  Biso   1.000  C
  N84      1.0000 0.71100  0.08900  0.71300  Biso   1.000  N
  H92      1.0000 0.65780  0.08030  0.71360  Biso   1.000  H
  H93      1.0000 0.72370  0.11080  0.68930  Biso   1.000  H
  N85      1.0000 0.85630  0.07050  0.75720  Biso   1.000  N
  C92      1.0000 0.92850  0.05840  0.79240  Biso   1.000  C
  H94      1.0000 0.98300  0.07450  0.79080  Biso   1.000  H
  N86      1.0000 0.91680  0.02140  0.83000  Biso   1.000  N
  N87      1.0000 0.66450  0.80480  0.03180  Biso   1.000  N
  C93      1.0000 0.71120  0.85010  0.04190  Biso   1.000  C
  H95      1.0000 0.72290  0.86060  0.07550  Biso   1.000  H
  N88      1.0000 0.74630  0.88530  0.01300  Biso   1.000  N
  C94      1.0000 0.73120  0.86510  0.96620  Biso   1.000  C
  C95      1.0000 0.67740  0.81600  0.95780  Biso   1.000  C
  C96      1.0000 0.64100  0.78340  0.98060  Biso   1.000  C
  N89      1.0000 0.59320  0.73410  0.97400  Biso   1.000  N
  H96      1.0000 0.58090  0.71770  0.94500  Biso   1.000  H
  H97      1.0000 0.57410  0.71870  0.99870  Biso   1.000  H
  N90      1.0000 0.67160  0.80040  0.89950  Biso   1.000  N
  C97      1.0000 0.71870  0.85080  0.88750  Biso   1.000  C
  H98      1.0000 0.72500  0.85890  0.85500  Biso   1.000  H
  N91      1.0000 0.75360  0.88620  0.92590  Biso   1.000  N
  N92      1.0000 0.14010  0.92240  0.78630  Biso   1.000  N
  C98      1.0000 0.07980  0.94620  0.80920  Biso   1.000  C
  H99      1.0000 0.02140  0.94040  0.79450  Biso   1.000  H
  N93      1.0000 0.09630  0.97730  0.85090  Biso   1.000  N
  C99      1.0000 0.18350  0.98530  0.86740  Biso   1.000  C
  C100     1.0000 0.25400  0.96290  0.84700  Biso   1.000  C
  C101     1.0000 0.23100  0.93110  0.80280  Biso   1.000  C
  N94      1.0000 0.28960  0.90870  0.78090  Biso   1.000  N
  H100     1.0000 0.34410  0.91330  0.79370  Biso   1.000  H
  H101     1.0000 0.27420  0.88910  0.75350  Biso   1.000  H
  N95      1.0000 0.33320  0.97850  0.87250  Biso   1.000  N
  C102     1.0000 0.30790  0.00760  0.90920  Biso   1.000  C
  H102     1.0000 0.35040  0.02230  0.93500  Biso   1.000  H
  N96      1.0000 0.22470  0.01670  0.91090  Biso   1.000  N
  Cu21     1.0000 0.00000  0.00000  0.00000  Biso   1.000  Cu
  Cu22     1.0000 0.49672  0.50062  0.11117  Biso   1.000  Cu
  Cu23     1.0000 0.66475  0.54576  0.07562  Biso   1.000  Cu
  Cu24     1.0000 0.66701  0.54742  0.96279  Biso   1.000  Cu
  O19      1.0000 0.42250  0.51900  0.04770  Biso   1.000  O
  H103     1.0000 0.39590  0.55180  0.04470  Biso   1.000  H
  O20      1.0000 0.57550  0.48120  0.06470  Biso   1.000  O
  H104     1.0000 0.60280  0.45110  0.06840  Biso   1.000  H
  O21      1.0000 0.59310  0.56960  0.01050  Biso   1.000  O
  H105     1.0000 0.58470  0.60410  0.00980  Biso   1.000  H
  N97      1.0000 0.83450  0.48120  0.20280  Biso   1.000  N
  C103     1.0000 0.80250  0.50960  0.16240  Biso   1.000  C
  H106     1.0000 0.84150  0.52810  0.14540  Biso   1.000  H
  N98      1.0000 0.71950  0.51410  0.14370  Biso   1.000  N
  C104     1.0000 0.67450  0.48570  0.17460  Biso   1.000  C
  C105     1.0000 0.69800  0.45030  0.21720  Biso   1.000  C
  C106     1.0000 0.77900  0.44900  0.23500  Biso   1.000  C
  N99      1.0000 0.84100  0.42800  0.27450  Biso   1.000  N
  H107     1.0000 0.82520  0.40690  0.29750  Biso   1.000  H
  H108     1.0000 0.89520  0.43640  0.27590  Biso   1.000  H
  C107     1.0000 0.73300  0.46300  0.21380  Biso   1.000  C
  C108     1.0000 0.71700  0.43300  0.24600  Biso   1.000  C
  N100     1.0000 0.78900  0.41100  0.28700  Biso   1.000  N
  H109     1.0000 0.84220  0.41970  0.28640  Biso   1.000  H
  H110     1.0000 0.77630  0.38920  0.31070  Biso   1.000  H
  N101     1.0000 0.64370  0.42950  0.24280  Biso   1.000  N
  C109     1.0000 0.57150  0.44160  0.20760  Biso   1.000  C
  H111     1.0000 0.51700  0.42550  0.20920  Biso   1.000  H
  N102     1.0000 0.58320  0.47860  0.17000  Biso   1.000  N
  N103     1.0000 0.83550  0.69520  0.96820  Biso   1.000  N
  C110     1.0000 0.78880  0.64990  0.95810  Biso   1.000  C
  H112     1.0000 0.77710  0.63940  0.92450  Biso   1.000  H
  N104     1.0000 0.75370  0.61470  0.98700  Biso   1.000  N
  C111     1.0000 0.76880  0.63490  0.03380  Biso   1.000  C
  C112     1.0000 0.82260  0.68400  0.04220  Biso   1.000  C
  C113     1.0000 0.85900  0.71660  0.01940  Biso   1.000  C
  N105     1.0000 0.90680  0.76590  0.02600  Biso   1.000  N
  H113     1.0000 0.91910  0.78230  0.05500  Biso   1.000  H
  H114     1.0000 0.92590  0.78130  0.00130  Biso   1.000  H
  N106     1.0000 0.82840  0.69960  0.10050  Biso   1.000  N
  C114     1.0000 0.78130  0.64920  0.11250  Biso   1.000  C
  H115     1.0000 0.77500  0.64110  0.14500  Biso   1.000  H
  N107     1.0000 0.74640  0.61380  0.07410  Biso   1.000  N
  N108     1.0000 0.35990  0.57760  0.21370  Biso   1.000  N
  C115     1.0000 0.42020  0.55380  0.19080  Biso   1.000  C
  H116     1.0000 0.47860  0.55960  0.20550  Biso   1.000  H
  N109     1.0000 0.40370  0.52270  0.14910  Biso   1.000  N
  C116     1.0000 0.31650  0.51470  0.13260  Biso   1.000  C
  C117     1.0000 0.24600  0.53710  0.15300  Biso   1.000  C
  C118     1.0000 0.26900  0.56890  0.19720  Biso   1.000  C
  N110     1.0000 0.21040  0.59130  0.21910  Biso   1.000  N
  H117     1.0000 0.15590  0.58670  0.20630  Biso   1.000  H
  H118     1.0000 0.22580  0.61090  0.24650  Biso   1.000  H
  N111     1.0000 0.16680  0.52150  0.12750  Biso   1.000  N
  C119     1.0000 0.19210  0.49240  0.09080  Biso   1.000  C
  H119     1.0000 0.14960  0.47770  0.06500  Biso   1.000  H
  N112     1.0000 0.27530  0.48330  0.08910  Biso   1.000  N
  Cu25     1.0000 0.50328  0.49938  0.88883  Biso   1.000  Cu
  Cu26     1.0000 0.33525  0.45424  0.92438  Biso   1.000  Cu
  Cu27     1.0000 0.33299  0.45258  0.03721  Biso   1.000  Cu
  O22      1.0000 0.57750  0.48100  0.95230  Biso   1.000  O
  H120     1.0000 0.60410  0.44820  0.95530  Biso   1.000  H
  O23      1.0000 0.42450  0.51880  0.93530  Biso   1.000  O
  H121     1.0000 0.39720  0.54890  0.93160  Biso   1.000  H
  O24      1.0000 0.40690  0.43040  0.98950  Biso   1.000  O
  H122     1.0000 0.41530  0.39590  0.99020  Biso   1.000  H
  N113     1.0000 0.16550  0.51880  0.79720  Biso   1.000  N
  C120     1.0000 0.19750  0.49040  0.83760  Biso   1.000  C
  H123     1.0000 0.15850  0.47190  0.85460  Biso   1.000  H
  N114     1.0000 0.28050  0.48590  0.85630  Biso   1.000  N
  C121     1.0000 0.32550  0.51430  0.82540  Biso   1.000  C
  C122     1.0000 0.30200  0.54970  0.78280  Biso   1.000  C
  C123     1.0000 0.22100  0.55100  0.76500  Biso   1.000  C
  N115     1.0000 0.15900  0.57200  0.72550  Biso   1.000  N
  H124     1.0000 0.17480  0.59310  0.70250  Biso   1.000  H
  H125     1.0000 0.10480  0.56360  0.72410  Biso   1.000  H
  C124     1.0000 0.26700  0.53700  0.78620  Biso   1.000  C
  C125     1.0000 0.28300  0.56700  0.75400  Biso   1.000  C
  N116     1.0000 0.21100  0.58900  0.71300  Biso   1.000  N
  H126     1.0000 0.15780  0.58030  0.71360  Biso   1.000  H
  H127     1.0000 0.22370  0.61080  0.68930  Biso   1.000  H
  N117     1.0000 0.35630  0.57050  0.75720  Biso   1.000  N
  C126     1.0000 0.42850  0.55840  0.79240  Biso   1.000  C
  H128     1.0000 0.48300  0.57450  0.79080  Biso   1.000  H
  N118     1.0000 0.41680  0.52140  0.83000  Biso   1.000  N
  N119     1.0000 0.16450  0.30480  0.03180  Biso   1.000  N
  C127     1.0000 0.21120  0.35010  0.04190  Biso   1.000  C
  H129     1.0000 0.22290  0.36060  0.07550  Biso   1.000  H
  N120     1.0000 0.24630  0.38530  0.01300  Biso   1.000  N
  C128     1.0000 0.23120  0.36510  0.96620  Biso   1.000  C
  C129     1.0000 0.17740  0.31600  0.95780  Biso   1.000  C
  C130     1.0000 0.14100  0.28340  0.98060  Biso   1.000  C
  N121     1.0000 0.09320  0.23410  0.97400  Biso   1.000  N
  H130     1.0000 0.08090  0.21770  0.94500  Biso   1.000  H
  H131     1.0000 0.07410  0.21870  0.99870  Biso   1.000  H
  N122     1.0000 0.17160  0.30040  0.89950  Biso   1.000  N
  C131     1.0000 0.21870  0.35080  0.88750  Biso   1.000  C
  H132     1.0000 0.22500  0.35890  0.85500  Biso   1.000  H
  N123     1.0000 0.25360  0.38620  0.92590  Biso   1.000  N
  N124     1.0000 0.64010  0.42240  0.78630  Biso   1.000  N
  C132     1.0000 0.57980  0.44620  0.80920  Biso   1.000  C
  H133     1.0000 0.52140  0.44040  0.79450  Biso   1.000  H
  N125     1.0000 0.59630  0.47730  0.85090  Biso   1.000  N
  C133     1.0000 0.68350  0.48530  0.86740  Biso   1.000  C
  C134     1.0000 0.75400  0.46290  0.84700  Biso   1.000  C
  C135     1.0000 0.73100  0.43110  0.80280  Biso   1.000  C
  N126     1.0000 0.78960  0.40870  0.78090  Biso   1.000  N
  H134     1.0000 0.84410  0.41330  0.79370  Biso   1.000  H
  H135     1.0000 0.77420  0.38910  0.75350  Biso   1.000  H
  N127     1.0000 0.83320  0.47850  0.87250  Biso   1.000  N
  C136     1.0000 0.80790  0.50760  0.90920  Biso   1.000  C
  H136     1.0000 0.85040  0.52230  0.93500  Biso   1.000  H
  N128     1.0000 0.72470  0.51670  0.91090  Biso   1.000  N
  Cu28     1.0000 0.50000  0.50000  0.00000  Biso   1.000  Cu
