data_image0
_cell_length_a       18.8064
_cell_length_b       18.7873
_cell_length_c       22.3898
_cell_angle_alpha    90
_cell_angle_beta     102.726
_cell_angle_gamma    90

_symmetry_space_group_name_H-M    "P 1"
_symmetry_int_tables_number       1

loop_
  _symmetry_equiv_pos_as_xyz
  'x, y, z'

loop_
  _atom_site_label
  _atom_site_occupancy
  _atom_site_fract_x
  _atom_site_fract_y
  _atom_site_fract_z
  _atom_site_thermal_displace_type
  _atom_site_B_iso_or_equiv
  _atom_site_type_symbol
  Ru1      1.0000 0.49991  0.44006  0.50191  Biso   1.000  Ru
  Br1      1.0000 0.73483  0.33366  0.39525  Biso   1.000  Br
  Br2      1.0000 0.21118  0.54861  0.38936  Biso   1.000  Br
  N1       1.0000 0.54600  0.41340  0.43030  Biso   1.000  N
  N2       1.0000 0.41830  0.46950  0.42800  Biso   1.000  N
  N3       1.0000 0.54100  0.54260  0.50690  Biso   1.000  N
  N4       1.0000 0.45110  0.48080  0.56840  Biso   1.000  N
  N5       1.0000 0.58340  0.39910  0.56970  Biso   1.000  N
  N6       1.0000 0.46050  0.33860  0.50680  Biso   1.000  N
  C1       1.0000 0.53040  0.41350  0.32200  Biso   1.000  C
  H1       1.0000 0.50130  0.42360  0.28260  Biso   1.000  H
  C2       1.0000 0.59940  0.38300  0.32730  Biso   1.000  C
  H2       1.0000 0.61740  0.37220  0.29190  Biso   1.000  H
  C3       1.0000 0.63980  0.36920  0.38390  Biso   1.000  C
  C4       1.0000 0.61400  0.38560  0.43480  Biso   1.000  C
  H3       1.0000 0.64420  0.37740  0.47420  Biso   1.000  H
  C5       1.0000 0.50430  0.42890  0.37310  Biso   1.000  C
  C6       1.0000 0.43380  0.46170  0.37240  Biso   1.000  C
  C7       1.0000 0.38670  0.48420  0.32140  Biso   1.000  C
  H4       1.0000 0.40040  0.48150  0.28300  Biso   1.000  H
  C8       1.0000 0.32010  0.51060  0.32370  Biso   1.000  C
  H5       1.0000 0.28670  0.52550  0.28770  Biso   1.000  H
  C9       1.0000 0.30290  0.51490  0.38060  Biso   1.000  C
  C10      1.0000 0.35250  0.49380  0.43200  Biso   1.000  C
  H6       1.0000 0.34010  0.49640  0.47080  Biso   1.000  H
  C11      1.0000 0.40590  0.44940  0.59880  Biso   1.000  C
  H7       1.0000 0.39420  0.40070  0.59070  Biso   1.000  H
  C12      1.0000 0.37480  0.48500  0.64190  Biso   1.000  C
  H8       1.0000 0.34080  0.46180  0.66100  Biso   1.000  H
  C13      1.0000 0.39530  0.55560  0.65590  Biso   1.000  C
  H9       1.0000 0.37620  0.58030  0.68590  Biso   1.000  H
  C14      1.0000 0.44340  0.59010  0.62660  Biso   1.000  C
  C15      1.0000 0.47130  0.55020  0.58230  Biso   1.000  C
  C16      1.0000 0.51770  0.58350  0.55010  Biso   1.000  C
  C17      1.0000 0.53820  0.65570  0.56100  Biso   1.000  C
  C18      1.0000 0.51350  0.69250  0.60740  Biso   1.000  C
  H10      1.0000 0.52940  0.73990  0.61750  Biso   1.000  H
  C19      1.0000 0.46640  0.66010  0.63820  Biso   1.000  C
  H11      1.0000 0.44910  0.68650  0.66830  Biso   1.000  H
  C20      1.0000 0.58420  0.68330  0.52610  Biso   1.000  C
  H12      1.0000 0.60110  0.73090  0.53290  Biso   1.000  H
  C21      1.0000 0.60530  0.64390  0.48270  Biso   1.000  C
  H13      1.0000 0.63520  0.66400  0.45800  Biso   1.000  H
  C22      1.0000 0.58300  0.57420  0.47480  Biso   1.000  C
  H14      1.0000 0.59880  0.54700  0.44430  Biso   1.000  H
  C23      1.0000 0.64250  0.42980  0.59900  Biso   1.000  C
  H15      1.0000 0.65160  0.47770  0.58920  Biso   1.000  H
  C24      1.0000 0.69430  0.39440  0.64540  Biso   1.000  C
  H16      1.0000 0.73770  0.41800  0.66510  Biso   1.000  H
  C25      1.0000 0.68130  0.32580  0.66150  Biso   1.000  C
  H17      1.0000 0.71570  0.30170  0.69230  Biso   1.000  H
  C26      1.0000 0.61670  0.29180  0.63200  Biso   1.000  C
  C27      1.0000 0.56720  0.33020  0.58530  Biso   1.000  C
  C28      1.0000 0.59600  0.22210  0.64350  Biso   1.000  C
  H18      1.0000 0.62620  0.19590  0.67560  Biso   1.000  H
  C29      1.0000 0.53650  0.19150  0.61180  Biso   1.000  C
  H19      1.0000 0.52650  0.14370  0.62100  Biso   1.000  H
  C30      1.0000 0.48550  0.22800  0.56310  Biso   1.000  C
  C31      1.0000 0.50430  0.29920  0.55090  Biso   1.000  C
  C32      1.0000 0.42230  0.19820  0.52720  Biso   1.000  C
  H20      1.0000 0.40930  0.15030  0.53310  Biso   1.000  H
  C33      1.0000 0.38070  0.23860  0.48420  Biso   1.000  C
  H21      1.0000 0.33690  0.21950  0.46020  Biso   1.000  H
  C34      1.0000 0.40030  0.30860  0.47390  Biso   1.000  C
  H22      1.0000 0.36980  0.33550  0.44240  Biso   1.000  H
  Ru2      1.0000 0.95585  0.55827  0.81429  Biso   1.000  Ru
  Br3      1.0000 0.09392  0.29983  0.92942  Biso   1.000  Br
  Br4      1.0000 0.87506  0.82161  0.91935  Biso   1.000  Br
  N7       1.0000 0.00140  0.49740  0.88800  Biso   1.000  N
  N8       1.0000 0.94580  0.62270  0.88500  Biso   1.000  N
  N9       1.0000 0.85340  0.51900  0.80960  Biso   1.000  N
  N10      1.0000 0.89590  0.62190  0.74550  Biso   1.000  N
  N11      1.0000 0.98000  0.49140  0.74780  Biso   1.000  N
  N12      1.0000 0.05740  0.59820  0.80900  Biso   1.000  N
  C35      1.0000 0.02950  0.42820  0.88590  Biso   1.000  C
  H23      1.0000 0.02880  0.40680  0.84730  Biso   1.000  H
  C36      1.0000 0.05720  0.39170  0.93720  Biso   1.000  C
  C37      1.0000 0.05730  0.41830  0.99370  Biso   1.000  C
  H24      1.0000 0.07680  0.39180  0.02970  Biso   1.000  H
  C38      1.0000 0.02760  0.48610  0.99700  Biso   1.000  C
  H25      1.0000 0.02680  0.50640  0.03570  Biso   1.000  H
  C39      1.0000 0.99920  0.52420  0.94310  Biso   1.000  C
  C40      1.0000 0.96640  0.59510  0.94240  Biso   1.000  C
  C41      1.0000 0.95640  0.62910  0.99270  Biso   1.000  C
  H26      1.0000 0.96820  0.60640  0.03150  Biso   1.000  H
  C42      1.0000 0.92810  0.69900  0.98720  Biso   1.000  C
  H27      1.0000 0.92240  0.72490  0.02230  Biso   1.000  H
  C43      1.0000 0.90940  0.72790  0.93060  Biso   1.000  C
  C44      1.0000 0.91890  0.69040  0.87960  Biso   1.000  C
  H28      1.0000 0.90650  0.71210  0.84030  Biso   1.000  H
  C45      1.0000 0.91900  0.67530  0.71640  Biso   1.000  C
  H29      1.0000 0.96900  0.68800  0.72730  Biso   1.000  H
  C46      1.0000 0.87210  0.71450  0.66930  Biso   1.000  C
  H30      1.0000 0.89020  0.75220  0.64870  Biso   1.000  H
  C47      1.0000 0.79860  0.69560  0.65440  Biso   1.000  C
  H31      1.0000 0.76580  0.72000  0.62270  Biso   1.000  H
  C48      1.0000 0.77340  0.64100  0.68630  Biso   1.000  C
  C49      1.0000 0.82450  0.60430  0.73150  Biso   1.000  C
  C50      1.0000 0.80040  0.54940  0.76660  Biso   1.000  C
  C51      1.0000 0.72740  0.53000  0.75490  Biso   1.000  C
  C52      1.0000 0.67690  0.56770  0.70670  Biso   1.000  C
  H32      1.0000 0.62680  0.55480  0.69800  Biso   1.000  H
  C53      1.0000 0.69880  0.62020  0.67400  Biso   1.000  C
  H33      1.0000 0.66440  0.64340  0.64260  Biso   1.000  H
  C54      1.0000 0.70800  0.47590  0.78880  Biso   1.000  C
  H34      1.0000 0.65890  0.45980  0.78170  Biso   1.000  H
  C55      1.0000 0.76060  0.44550  0.83320  Biso   1.000  C
  H35      1.0000 0.74780  0.40820  0.85750  Biso   1.000  H
  C56      1.0000 0.83090  0.46760  0.84320  Biso   1.000  C
  H36      1.0000 0.86570  0.44600  0.87530  Biso   1.000  H
  C57      1.0000 0.94080  0.43910  0.71780  Biso   1.000  C
  H37      1.0000 0.89400  0.43030  0.72580  Biso   1.000  H
  C58      1.0000 0.96460  0.39530  0.67410  Biso   1.000  C
  H38      1.0000 0.93610  0.35590  0.65590  Biso   1.000  H
  C59      1.0000 0.02720  0.41060  0.65960  Biso   1.000  C
  H39      1.0000 0.04340  0.38210  0.63020  Biso   1.000  H
  C60      1.0000 0.07120  0.46910  0.68720  Biso   1.000  C
  C61      1.0000 0.04370  0.50860  0.73300  Biso   1.000  C
  C62      1.0000 0.08660  0.56490  0.76500  Biso   1.000  C
  C63      1.0000 0.15280  0.58260  0.75150  Biso   1.000  C
  C64      1.0000 0.17590  0.54560  0.70520  Biso   1.000  C
  H40      1.0000 0.22050  0.55890  0.69490  Biso   1.000  H
  C65      1.0000 0.13690  0.49170  0.67460  Biso   1.000  C
  H41      1.0000 0.15480  0.46820  0.64330  Biso   1.000  H
  C66      1.0000 0.19200  0.63770  0.78720  Biso   1.000  C
  H42      1.0000 0.23790  0.65220  0.78030  Biso   1.000  H
  C67      1.0000 0.16410  0.67010  0.83130  Biso   1.000  C
  H43      1.0000 0.19070  0.70660  0.85590  Biso   1.000  H
  C68      1.0000 0.09500  0.64860  0.84020  Biso   1.000  C
  H44      1.0000 0.07540  0.67230  0.87050  Biso   1.000  H
  Ru3      1.0000 0.99991  0.94006  0.50191  Biso   1.000  Ru
  Br5      1.0000 0.23483  0.83366  0.39525  Biso   1.000  Br
  Br6      1.0000 0.71118  0.04861  0.38936  Biso   1.000  Br
  N13      1.0000 0.04600  0.91340  0.43030  Biso   1.000  N
  N14      1.0000 0.91830  0.96950  0.42800  Biso   1.000  N
  N15      1.0000 0.04100  0.04260  0.50690  Biso   1.000  N
  N16      1.0000 0.95110  0.98080  0.56840  Biso   1.000  N
  N17      1.0000 0.08340  0.89910  0.56970  Biso   1.000  N
  N18      1.0000 0.96050  0.83860  0.50680  Biso   1.000  N
  C69      1.0000 0.03040  0.91350  0.32200  Biso   1.000  C
  H45      1.0000 0.00130  0.92360  0.28260  Biso   1.000  H
  C70      1.0000 0.09940  0.88300  0.32730  Biso   1.000  C
  H46      1.0000 0.11740  0.87220  0.29190  Biso   1.000  H
  C71      1.0000 0.13980  0.86920  0.38390  Biso   1.000  C
  C72      1.0000 0.11400  0.88560  0.43480  Biso   1.000  C
  H47      1.0000 0.14420  0.87740  0.47420  Biso   1.000  H
  C73      1.0000 0.00430  0.92890  0.37310  Biso   1.000  C
  C74      1.0000 0.93380  0.96170  0.37240  Biso   1.000  C
  C75      1.0000 0.88670  0.98420  0.32140  Biso   1.000  C
  H48      1.0000 0.90040  0.98150  0.28300  Biso   1.000  H
  C76      1.0000 0.82010  0.01060  0.32370  Biso   1.000  C
  H49      1.0000 0.78670  0.02550  0.28770  Biso   1.000  H
  C77      1.0000 0.80290  0.01490  0.38060  Biso   1.000  C
  C78      1.0000 0.85250  0.99380  0.43200  Biso   1.000  C
  H50      1.0000 0.84010  0.99640  0.47080  Biso   1.000  H
  C79      1.0000 0.90590  0.94940  0.59880  Biso   1.000  C
  H51      1.0000 0.89420  0.90070  0.59070  Biso   1.000  H
  C80      1.0000 0.87480  0.98500  0.64190  Biso   1.000  C
  H52      1.0000 0.84080  0.96180  0.66100  Biso   1.000  H
  C81      1.0000 0.89530  0.05560  0.65590  Biso   1.000  C
  H53      1.0000 0.87620  0.08030  0.68590  Biso   1.000  H
  C82      1.0000 0.94340  0.09010  0.62660  Biso   1.000  C
  C83      1.0000 0.97130  0.05020  0.58230  Biso   1.000  C
  C84      1.0000 0.01770  0.08350  0.55010  Biso   1.000  C
  C85      1.0000 0.03820  0.15570  0.56100  Biso   1.000  C
  C86      1.0000 0.01350  0.19250  0.60740  Biso   1.000  C
  H54      1.0000 0.02940  0.23990  0.61750  Biso   1.000  H
  C87      1.0000 0.96640  0.16010  0.63820  Biso   1.000  C
  H55      1.0000 0.94910  0.18650  0.66830  Biso   1.000  H
  C88      1.0000 0.08420  0.18330  0.52610  Biso   1.000  C
  H56      1.0000 0.10110  0.23090  0.53290  Biso   1.000  H
  C89      1.0000 0.10530  0.14390  0.48270  Biso   1.000  C
  H57      1.0000 0.13520  0.16400  0.45800  Biso   1.000  H
  C90      1.0000 0.08300  0.07420  0.47480  Biso   1.000  C
  H58      1.0000 0.09880  0.04700  0.44430  Biso   1.000  H
  C91      1.0000 0.14250  0.92980  0.59900  Biso   1.000  C
  H59      1.0000 0.15160  0.97770  0.58920  Biso   1.000  H
  C92      1.0000 0.19430  0.89440  0.64540  Biso   1.000  C
  H60      1.0000 0.23770  0.91800  0.66510  Biso   1.000  H
  C93      1.0000 0.18130  0.82580  0.66150  Biso   1.000  C
  H61      1.0000 0.21570  0.80170  0.69230  Biso   1.000  H
  C94      1.0000 0.11670  0.79180  0.63200  Biso   1.000  C
  C95      1.0000 0.06720  0.83020  0.58530  Biso   1.000  C
  C96      1.0000 0.09600  0.72210  0.64350  Biso   1.000  C
  H62      1.0000 0.12620  0.69590  0.67560  Biso   1.000  H
  C97      1.0000 0.03650  0.69150  0.61180  Biso   1.000  C
  H63      1.0000 0.02650  0.64370  0.62100  Biso   1.000  H
  C98      1.0000 0.98550  0.72800  0.56310  Biso   1.000  C
  C99      1.0000 0.00430  0.79920  0.55090  Biso   1.000  C
  C100     1.0000 0.92230  0.69820  0.52720  Biso   1.000  C
  H64      1.0000 0.90930  0.65030  0.53310  Biso   1.000  H
  C101     1.0000 0.88070  0.73860  0.48420  Biso   1.000  C
  H65      1.0000 0.83690  0.71950  0.46020  Biso   1.000  H
  C102     1.0000 0.90030  0.80860  0.47390  Biso   1.000  C
  H66      1.0000 0.86980  0.83550  0.44240  Biso   1.000  H
  Ru4      1.0000 0.45585  0.05827  0.81429  Biso   1.000  Ru
  Br7      1.0000 0.59392  0.79983  0.92942  Biso   1.000  Br
  Br8      1.0000 0.37506  0.32161  0.91935  Biso   1.000  Br
  N19      1.0000 0.50140  0.99740  0.88800  Biso   1.000  N
  N20      1.0000 0.44580  0.12270  0.88500  Biso   1.000  N
  N21      1.0000 0.35340  0.01900  0.80960  Biso   1.000  N
  N22      1.0000 0.39590  0.12190  0.74550  Biso   1.000  N
  N23      1.0000 0.48000  0.99140  0.74780  Biso   1.000  N
  N24      1.0000 0.55740  0.09820  0.80900  Biso   1.000  N
  C103     1.0000 0.52950  0.92820  0.88590  Biso   1.000  C
  H67      1.0000 0.52880  0.90680  0.84730  Biso   1.000  H
  C104     1.0000 0.55720  0.89170  0.93720  Biso   1.000  C
  C105     1.0000 0.55730  0.91830  0.99370  Biso   1.000  C
  H68      1.0000 0.57680  0.89180  0.02970  Biso   1.000  H
  C106     1.0000 0.52760  0.98610  0.99700  Biso   1.000  C
  H69      1.0000 0.52680  0.00640  0.03570  Biso   1.000  H
  C107     1.0000 0.49920  0.02420  0.94310  Biso   1.000  C
  C108     1.0000 0.46640  0.09510  0.94240  Biso   1.000  C
  C109     1.0000 0.45640  0.12910  0.99270  Biso   1.000  C
  H70      1.0000 0.46820  0.10640  0.03150  Biso   1.000  H
  C110     1.0000 0.42810  0.19900  0.98720  Biso   1.000  C
  H71      1.0000 0.42240  0.22490  0.02230  Biso   1.000  H
  C111     1.0000 0.40940  0.22790  0.93060  Biso   1.000  C
  C112     1.0000 0.41890  0.19040  0.87960  Biso   1.000  C
  H72      1.0000 0.40650  0.21210  0.84030  Biso   1.000  H
  C113     1.0000 0.41900  0.17530  0.71640  Biso   1.000  C
  H73      1.0000 0.46900  0.18800  0.72730  Biso   1.000  H
  C114     1.0000 0.37210  0.21450  0.66930  Biso   1.000  C
  H74      1.0000 0.39020  0.25220  0.64870  Biso   1.000  H
  C115     1.0000 0.29860  0.19560  0.65440  Biso   1.000  C
  H75      1.0000 0.26580  0.22000  0.62270  Biso   1.000  H
  C116     1.0000 0.27340  0.14100  0.68630  Biso   1.000  C
  C117     1.0000 0.32450  0.10430  0.73150  Biso   1.000  C
  C118     1.0000 0.30040  0.04940  0.76660  Biso   1.000  C
  C119     1.0000 0.22740  0.03000  0.75490  Biso   1.000  C
  C120     1.0000 0.17690  0.06770  0.70670  Biso   1.000  C
  H76      1.0000 0.12680  0.05480  0.69800  Biso   1.000  H
  C121     1.0000 0.19880  0.12020  0.67400  Biso   1.000  C
  H77      1.0000 0.16440  0.14340  0.64260  Biso   1.000  H
  C122     1.0000 0.20800  0.97590  0.78880  Biso   1.000  C
  H78      1.0000 0.15890  0.95980  0.78170  Biso   1.000  H
  C123     1.0000 0.26060  0.94550  0.83320  Biso   1.000  C
  H79      1.0000 0.24780  0.90820  0.85750  Biso   1.000  H
  C124     1.0000 0.33090  0.96760  0.84320  Biso   1.000  C
  H80      1.0000 0.36570  0.94600  0.87530  Biso   1.000  H
  C125     1.0000 0.44080  0.93910  0.71780  Biso   1.000  C
  H81      1.0000 0.39400  0.93030  0.72580  Biso   1.000  H
  C126     1.0000 0.46460  0.89530  0.67410  Biso   1.000  C
  H82      1.0000 0.43610  0.85590  0.65590  Biso   1.000  H
  C127     1.0000 0.52720  0.91060  0.65960  Biso   1.000  C
  H83      1.0000 0.54340  0.88210  0.63020  Biso   1.000  H
  C128     1.0000 0.57120  0.96910  0.68720  Biso   1.000  C
  C129     1.0000 0.54370  0.00860  0.73300  Biso   1.000  C
  C130     1.0000 0.58660  0.06490  0.76500  Biso   1.000  C
  C131     1.0000 0.65280  0.08260  0.75150  Biso   1.000  C
  C132     1.0000 0.67590  0.04560  0.70520  Biso   1.000  C
  H84      1.0000 0.72050  0.05890  0.69490  Biso   1.000  H
  C133     1.0000 0.63690  0.99170  0.67460  Biso   1.000  C
  H85      1.0000 0.65480  0.96820  0.64330  Biso   1.000  H
  C134     1.0000 0.69200  0.13770  0.78720  Biso   1.000  C
  H86      1.0000 0.73790  0.15220  0.78030  Biso   1.000  H
  C135     1.0000 0.66410  0.17010  0.83130  Biso   1.000  C
  H87      1.0000 0.69070  0.20660  0.85590  Biso   1.000  H
  C136     1.0000 0.59500  0.14860  0.84020  Biso   1.000  C
  H88      1.0000 0.57540  0.17230  0.87050  Biso   1.000  H
  Ru5      1.0000 0.49991  0.55994  0.00191  Biso   1.000  Ru
  Br9      1.0000 0.73483  0.66634  0.89525  Biso   1.000  Br
  Br10     1.0000 0.21118  0.45139  0.88936  Biso   1.000  Br
  N25      1.0000 0.54600  0.58660  0.93030  Biso   1.000  N
  N26      1.0000 0.41830  0.53050  0.92800  Biso   1.000  N
  N27      1.0000 0.54100  0.45740  0.00690  Biso   1.000  N
  N28      1.0000 0.45110  0.51920  0.06840  Biso   1.000  N
  N29      1.0000 0.58340  0.60090  0.06970  Biso   1.000  N
  N30      1.0000 0.46050  0.66140  0.00680  Biso   1.000  N
  C137     1.0000 0.53040  0.58650  0.82200  Biso   1.000  C
  H89      1.0000 0.50130  0.57640  0.78260  Biso   1.000  H
  C138     1.0000 0.59940  0.61700  0.82730  Biso   1.000  C
  H90      1.0000 0.61740  0.62780  0.79190  Biso   1.000  H
  C139     1.0000 0.63980  0.63080  0.88390  Biso   1.000  C
  C140     1.0000 0.61400  0.61440  0.93480  Biso   1.000  C
  H91      1.0000 0.64420  0.62260  0.97420  Biso   1.000  H
  C141     1.0000 0.50430  0.57110  0.87310  Biso   1.000  C
  C142     1.0000 0.43380  0.53830  0.87240  Biso   1.000  C
  C143     1.0000 0.38670  0.51580  0.82140  Biso   1.000  C
  H92      1.0000 0.40040  0.51850  0.78300  Biso   1.000  H
  C144     1.0000 0.32010  0.48940  0.82370  Biso   1.000  C
  H93      1.0000 0.28670  0.47450  0.78770  Biso   1.000  H
  C145     1.0000 0.30290  0.48510  0.88060  Biso   1.000  C
  C146     1.0000 0.35250  0.50620  0.93200  Biso   1.000  C
  H94      1.0000 0.34010  0.50360  0.97080  Biso   1.000  H
  C147     1.0000 0.40590  0.55060  0.09880  Biso   1.000  C
  H95      1.0000 0.39420  0.59930  0.09070  Biso   1.000  H
  C148     1.0000 0.37480  0.51500  0.14190  Biso   1.000  C
  H96      1.0000 0.34080  0.53820  0.16100  Biso   1.000  H
  C149     1.0000 0.39530  0.44440  0.15590  Biso   1.000  C
  H97      1.0000 0.37620  0.41970  0.18590  Biso   1.000  H
  C150     1.0000 0.44340  0.40990  0.12660  Biso   1.000  C
  C151     1.0000 0.47130  0.44980  0.08230  Biso   1.000  C
  C152     1.0000 0.51770  0.41650  0.05010  Biso   1.000  C
  C153     1.0000 0.53820  0.34430  0.06100  Biso   1.000  C
  C154     1.0000 0.51350  0.30750  0.10740  Biso   1.000  C
  H98      1.0000 0.52940  0.26010  0.11750  Biso   1.000  H
  C155     1.0000 0.46640  0.33990  0.13820  Biso   1.000  C
  H99      1.0000 0.44910  0.31350  0.16830  Biso   1.000  H
  C156     1.0000 0.58420  0.31670  0.02610  Biso   1.000  C
  H100     1.0000 0.60110  0.26910  0.03290  Biso   1.000  H
  C157     1.0000 0.60530  0.35610  0.98270  Biso   1.000  C
  H101     1.0000 0.63520  0.33600  0.95800  Biso   1.000  H
  C158     1.0000 0.58300  0.42580  0.97480  Biso   1.000  C
  H102     1.0000 0.59880  0.45300  0.94430  Biso   1.000  H
  C159     1.0000 0.64250  0.57020  0.09900  Biso   1.000  C
  H103     1.0000 0.65160  0.52230  0.08920  Biso   1.000  H
  C160     1.0000 0.69430  0.60560  0.14540  Biso   1.000  C
  H104     1.0000 0.73770  0.58200  0.16510  Biso   1.000  H
  C161     1.0000 0.68130  0.67420  0.16150  Biso   1.000  C
  H105     1.0000 0.71570  0.69830  0.19230  Biso   1.000  H
  C162     1.0000 0.61670  0.70820  0.13200  Biso   1.000  C
  C163     1.0000 0.56720  0.66980  0.08530  Biso   1.000  C
  C164     1.0000 0.59600  0.77790  0.14350  Biso   1.000  C
  H106     1.0000 0.62620  0.80410  0.17560  Biso   1.000  H
  C165     1.0000 0.53650  0.80850  0.11180  Biso   1.000  C
  H107     1.0000 0.52650  0.85630  0.12100  Biso   1.000  H
  C166     1.0000 0.48550  0.77200  0.06310  Biso   1.000  C
  C167     1.0000 0.50430  0.70080  0.05090  Biso   1.000  C
  C168     1.0000 0.42230  0.80180  0.02720  Biso   1.000  C
  H108     1.0000 0.40930  0.84970  0.03310  Biso   1.000  H
  C169     1.0000 0.38070  0.76140  0.98420  Biso   1.000  C
  H109     1.0000 0.33690  0.78050  0.96020  Biso   1.000  H
  C170     1.0000 0.40030  0.69140  0.97390  Biso   1.000  C
  H110     1.0000 0.36980  0.66450  0.94240  Biso   1.000  H
  Ru6      1.0000 0.95585  0.44173  0.31429  Biso   1.000  Ru
  Br11     1.0000 0.09392  0.70017  0.42942  Biso   1.000  Br
  Br12     1.0000 0.87506  0.17839  0.41935  Biso   1.000  Br
  N31      1.0000 0.00140  0.50260  0.38800  Biso   1.000  N
  N32      1.0000 0.94580  0.37730  0.38500  Biso   1.000  N
  N33      1.0000 0.85340  0.48100  0.30960  Biso   1.000  N
  N34      1.0000 0.89590  0.37810  0.24550  Biso   1.000  N
  N35      1.0000 0.98000  0.50860  0.24780  Biso   1.000  N
  N36      1.0000 0.05740  0.40180  0.30900  Biso   1.000  N
  C171     1.0000 0.02950  0.57180  0.38590  Biso   1.000  C
  H111     1.0000 0.02880  0.59320  0.34730  Biso   1.000  H
  C172     1.0000 0.05720  0.60830  0.43720  Biso   1.000  C
  C173     1.0000 0.05730  0.58170  0.49370  Biso   1.000  C
  H112     1.0000 0.07680  0.60820  0.52970  Biso   1.000  H
  C174     1.0000 0.02760  0.51390  0.49700  Biso   1.000  C
  H113     1.0000 0.02680  0.49360  0.53570  Biso   1.000  H
  C175     1.0000 0.99920  0.47580  0.44310  Biso   1.000  C
  C176     1.0000 0.96640  0.40490  0.44240  Biso   1.000  C
  C177     1.0000 0.95640  0.37090  0.49270  Biso   1.000  C
  H114     1.0000 0.96820  0.39360  0.53150  Biso   1.000  H
  C178     1.0000 0.92810  0.30100  0.48720  Biso   1.000  C
  H115     1.0000 0.92240  0.27510  0.52230  Biso   1.000  H
  C179     1.0000 0.90940  0.27210  0.43060  Biso   1.000  C
  C180     1.0000 0.91890  0.30960  0.37960  Biso   1.000  C
  H116     1.0000 0.90650  0.28790  0.34030  Biso   1.000  H
  C181     1.0000 0.91900  0.32470  0.21640  Biso   1.000  C
  H117     1.0000 0.96900  0.31200  0.22730  Biso   1.000  H
  C182     1.0000 0.87210  0.28550  0.16930  Biso   1.000  C
  H118     1.0000 0.89020  0.24780  0.14870  Biso   1.000  H
  C183     1.0000 0.79860  0.30440  0.15440  Biso   1.000  C
  H119     1.0000 0.76580  0.28000  0.12270  Biso   1.000  H
  C184     1.0000 0.77340  0.35900  0.18630  Biso   1.000  C
  C185     1.0000 0.82450  0.39570  0.23150  Biso   1.000  C
  C186     1.0000 0.80040  0.45060  0.26660  Biso   1.000  C
  C187     1.0000 0.72740  0.47000  0.25490  Biso   1.000  C
  C188     1.0000 0.67690  0.43230  0.20670  Biso   1.000  C
  H120     1.0000 0.62680  0.44520  0.19800  Biso   1.000  H
  C189     1.0000 0.69880  0.37980  0.17400  Biso   1.000  C
  H121     1.0000 0.66440  0.35660  0.14260  Biso   1.000  H
  C190     1.0000 0.70800  0.52410  0.28880  Biso   1.000  C
  H122     1.0000 0.65890  0.54020  0.28170  Biso   1.000  H
  C191     1.0000 0.76060  0.55450  0.33320  Biso   1.000  C
  H123     1.0000 0.74780  0.59180  0.35750  Biso   1.000  H
  C192     1.0000 0.83090  0.53240  0.34320  Biso   1.000  C
  H124     1.0000 0.86570  0.55400  0.37530  Biso   1.000  H
  C193     1.0000 0.94080  0.56090  0.21780  Biso   1.000  C
  H125     1.0000 0.89400  0.56970  0.22580  Biso   1.000  H
  C194     1.0000 0.96460  0.60470  0.17410  Biso   1.000  C
  H126     1.0000 0.93610  0.64410  0.15590  Biso   1.000  H
  C195     1.0000 0.02720  0.58940  0.15960  Biso   1.000  C
  H127     1.0000 0.04340  0.61790  0.13020  Biso   1.000  H
  C196     1.0000 0.07120  0.53090  0.18720  Biso   1.000  C
  C197     1.0000 0.04370  0.49140  0.23300  Biso   1.000  C
  C198     1.0000 0.08660  0.43510  0.26500  Biso   1.000  C
  C199     1.0000 0.15280  0.41740  0.25150  Biso   1.000  C
  C200     1.0000 0.17590  0.45440  0.20520  Biso   1.000  C
  H128     1.0000 0.22050  0.44110  0.19490  Biso   1.000  H
  C201     1.0000 0.13690  0.50830  0.17460  Biso   1.000  C
  H129     1.0000 0.15480  0.53180  0.14330  Biso   1.000  H
  C202     1.0000 0.19200  0.36230  0.28720  Biso   1.000  C
  H130     1.0000 0.23790  0.34780  0.28030  Biso   1.000  H
  C203     1.0000 0.16410  0.32990  0.33130  Biso   1.000  C
  H131     1.0000 0.19070  0.29340  0.35590  Biso   1.000  H
  C204     1.0000 0.09500  0.35140  0.34020  Biso   1.000  C
  H132     1.0000 0.07540  0.32770  0.37050  Biso   1.000  H
  Ru7      1.0000 0.99991  0.05994  0.00191  Biso   1.000  Ru
  Br13     1.0000 0.23483  0.16634  0.89525  Biso   1.000  Br
  Br14     1.0000 0.71118  0.95139  0.88936  Biso   1.000  Br
  N37      1.0000 0.04600  0.08660  0.93030  Biso   1.000  N
  N38      1.0000 0.91830  0.03050  0.92800  Biso   1.000  N
  N39      1.0000 0.04100  0.95740  0.00690  Biso   1.000  N
  N40      1.0000 0.95110  0.01920  0.06840  Biso   1.000  N
  N41      1.0000 0.08340  0.10090  0.06970  Biso   1.000  N
  N42      1.0000 0.96050  0.16140  0.00680  Biso   1.000  N
  C205     1.0000 0.03040  0.08650  0.82200  Biso   1.000  C
  H133     1.0000 0.00130  0.07640  0.78260  Biso   1.000  H
  C206     1.0000 0.09940  0.11700  0.82730  Biso   1.000  C
  H134     1.0000 0.11740  0.12780  0.79190  Biso   1.000  H
  C207     1.0000 0.13980  0.13080  0.88390  Biso   1.000  C
  C208     1.0000 0.11400  0.11440  0.93480  Biso   1.000  C
  H135     1.0000 0.14420  0.12260  0.97420  Biso   1.000  H
  C209     1.0000 0.00430  0.07110  0.87310  Biso   1.000  C
  C210     1.0000 0.93380  0.03830  0.87240  Biso   1.000  C
  C211     1.0000 0.88670  0.01580  0.82140  Biso   1.000  C
  H136     1.0000 0.90040  0.01850  0.78300  Biso   1.000  H
  C212     1.0000 0.82010  0.98940  0.82370  Biso   1.000  C
  H137     1.0000 0.78670  0.97450  0.78770  Biso   1.000  H
  C213     1.0000 0.80290  0.98510  0.88060  Biso   1.000  C
  C214     1.0000 0.85250  0.00620  0.93200  Biso   1.000  C
  H138     1.0000 0.84010  0.00360  0.97080  Biso   1.000  H
  C215     1.0000 0.90590  0.05060  0.09880  Biso   1.000  C
  H139     1.0000 0.89420  0.09930  0.09070  Biso   1.000  H
  C216     1.0000 0.87480  0.01500  0.14190  Biso   1.000  C
  H140     1.0000 0.84080  0.03820  0.16100  Biso   1.000  H
  C217     1.0000 0.89530  0.94440  0.15590  Biso   1.000  C
  H141     1.0000 0.87620  0.91970  0.18590  Biso   1.000  H
  C218     1.0000 0.94340  0.90990  0.12660  Biso   1.000  C
  C219     1.0000 0.97130  0.94980  0.08230  Biso   1.000  C
  C220     1.0000 0.01770  0.91650  0.05010  Biso   1.000  C
  C221     1.0000 0.03820  0.84430  0.06100  Biso   1.000  C
  C222     1.0000 0.01350  0.80750  0.10740  Biso   1.000  C
  H142     1.0000 0.02940  0.76010  0.11750  Biso   1.000  H
  C223     1.0000 0.96640  0.83990  0.13820  Biso   1.000  C
  H143     1.0000 0.94910  0.81350  0.16830  Biso   1.000  H
  C224     1.0000 0.08420  0.81670  0.02610  Biso   1.000  C
  H144     1.0000 0.10110  0.76910  0.03290  Biso   1.000  H
  C225     1.0000 0.10530  0.85610  0.98270  Biso   1.000  C
  H145     1.0000 0.13520  0.83600  0.95800  Biso   1.000  H
  C226     1.0000 0.08300  0.92580  0.97480  Biso   1.000  C
  H146     1.0000 0.09880  0.95300  0.94430  Biso   1.000  H
  C227     1.0000 0.14250  0.07020  0.09900  Biso   1.000  C
  H147     1.0000 0.15160  0.02230  0.08920  Biso   1.000  H
  C228     1.0000 0.19430  0.10560  0.14540  Biso   1.000  C
  H148     1.0000 0.23770  0.08200  0.16510  Biso   1.000  H
  C229     1.0000 0.18130  0.17420  0.16150  Biso   1.000  C
  H149     1.0000 0.21570  0.19830  0.19230  Biso   1.000  H
  C230     1.0000 0.11670  0.20820  0.13200  Biso   1.000  C
  C231     1.0000 0.06720  0.16980  0.08530  Biso   1.000  C
  C232     1.0000 0.09600  0.27790  0.14350  Biso   1.000  C
  H150     1.0000 0.12620  0.30410  0.17560  Biso   1.000  H
  C233     1.0000 0.03650  0.30850  0.11180  Biso   1.000  C
  H151     1.0000 0.02650  0.35630  0.12100  Biso   1.000  H
  C234     1.0000 0.98550  0.27200  0.06310  Biso   1.000  C
  C235     1.0000 0.00430  0.20080  0.05090  Biso   1.000  C
  C236     1.0000 0.92230  0.30180  0.02720  Biso   1.000  C
  H152     1.0000 0.90930  0.34970  0.03310  Biso   1.000  H
  C237     1.0000 0.88070  0.26140  0.98420  Biso   1.000  C
  H153     1.0000 0.83690  0.28050  0.96020  Biso   1.000  H
  C238     1.0000 0.90030  0.19140  0.97390  Biso   1.000  C
  H154     1.0000 0.86980  0.16450  0.94240  Biso   1.000  H
  Ru8      1.0000 0.45585  0.94173  0.31429  Biso   1.000  Ru
  Br15     1.0000 0.59392  0.20017  0.42942  Biso   1.000  Br
  Br16     1.0000 0.37506  0.67839  0.41935  Biso   1.000  Br
  N43      1.0000 0.50140  0.00260  0.38800  Biso   1.000  N
  N44      1.0000 0.44580  0.87730  0.38500  Biso   1.000  N
  N45      1.0000 0.35340  0.98100  0.30960  Biso   1.000  N
  N46      1.0000 0.39590  0.87810  0.24550  Biso   1.000  N
  N47      1.0000 0.48000  0.00860  0.24780  Biso   1.000  N
  N48      1.0000 0.55740  0.90180  0.30900  Biso   1.000  N
  C239     1.0000 0.52950  0.07180  0.38590  Biso   1.000  C
  H155     1.0000 0.52880  0.09320  0.34730  Biso   1.000  H
  C240     1.0000 0.55720  0.10830  0.43720  Biso   1.000  C
  C241     1.0000 0.55730  0.08170  0.49370  Biso   1.000  C
  H156     1.0000 0.57680  0.10820  0.52970  Biso   1.000  H
  C242     1.0000 0.52760  0.01390  0.49700  Biso   1.000  C
  H157     1.0000 0.52680  0.99360  0.53570  Biso   1.000  H
  C243     1.0000 0.49920  0.97580  0.44310  Biso   1.000  C
  C244     1.0000 0.46640  0.90490  0.44240  Biso   1.000  C
  C245     1.0000 0.45640  0.87090  0.49270  Biso   1.000  C
  H158     1.0000 0.46820  0.89360  0.53150  Biso   1.000  H
  C246     1.0000 0.42810  0.80100  0.48720  Biso   1.000  C
  H159     1.0000 0.42240  0.77510  0.52230  Biso   1.000  H
  C247     1.0000 0.40940  0.77210  0.43060  Biso   1.000  C
  C248     1.0000 0.41890  0.80960  0.37960  Biso   1.000  C
  H160     1.0000 0.40650  0.78790  0.34030  Biso   1.000  H
  C249     1.0000 0.41900  0.82470  0.21640  Biso   1.000  C
  H161     1.0000 0.46900  0.81200  0.22730  Biso   1.000  H
  C250     1.0000 0.37210  0.78550  0.16930  Biso   1.000  C
  H162     1.0000 0.39020  0.74780  0.14870  Biso   1.000  H
  C251     1.0000 0.29860  0.80440  0.15440  Biso   1.000  C
  H163     1.0000 0.26580  0.78000  0.12270  Biso   1.000  H
  C252     1.0000 0.27340  0.85900  0.18630  Biso   1.000  C
  C253     1.0000 0.32450  0.89570  0.23150  Biso   1.000  C
  C254     1.0000 0.30040  0.95060  0.26660  Biso   1.000  C
  C255     1.0000 0.22740  0.97000  0.25490  Biso   1.000  C
  C256     1.0000 0.17690  0.93230  0.20670  Biso   1.000  C
  H164     1.0000 0.12680  0.94520  0.19800  Biso   1.000  H
  C257     1.0000 0.19880  0.87980  0.17400  Biso   1.000  C
  H165     1.0000 0.16440  0.85660  0.14260  Biso   1.000  H
  C258     1.0000 0.20800  0.02410  0.28880  Biso   1.000  C
  H166     1.0000 0.15890  0.04020  0.28170  Biso   1.000  H
  C259     1.0000 0.26060  0.05450  0.33320  Biso   1.000  C
  H167     1.0000 0.24780  0.09180  0.35750  Biso   1.000  H
  C260     1.0000 0.33090  0.03240  0.34320  Biso   1.000  C
  H168     1.0000 0.36570  0.05400  0.37530  Biso   1.000  H
  C261     1.0000 0.44080  0.06090  0.21780  Biso   1.000  C
  H169     1.0000 0.39400  0.06970  0.22580  Biso   1.000  H
  C262     1.0000 0.46460  0.10470  0.17410  Biso   1.000  C
  H170     1.0000 0.43610  0.14410  0.15590  Biso   1.000  H
  C263     1.0000 0.52720  0.08940  0.15960  Biso   1.000  C
  H171     1.0000 0.54340  0.11790  0.13020  Biso   1.000  H
  C264     1.0000 0.57120  0.03090  0.18720  Biso   1.000  C
  C265     1.0000 0.54370  0.99140  0.23300  Biso   1.000  C
  C266     1.0000 0.58660  0.93510  0.26500  Biso   1.000  C
  C267     1.0000 0.65280  0.91740  0.25150  Biso   1.000  C
  C268     1.0000 0.67590  0.95440  0.20520  Biso   1.000  C
  H172     1.0000 0.72050  0.94110  0.19490  Biso   1.000  H
  C269     1.0000 0.63690  0.00830  0.17460  Biso   1.000  C
  H173     1.0000 0.65480  0.03180  0.14330  Biso   1.000  H
  C270     1.0000 0.69200  0.86230  0.28720  Biso   1.000  C
  H174     1.0000 0.73790  0.84780  0.28030  Biso   1.000  H
  C271     1.0000 0.66410  0.82990  0.33130  Biso   1.000  C
  H175     1.0000 0.69070  0.79340  0.35590  Biso   1.000  H
  C272     1.0000 0.59500  0.85140  0.34020  Biso   1.000  C
  H176     1.0000 0.57540  0.82770  0.37050  Biso   1.000  H
