data_image0
_cell_length_a       5.6448
_cell_length_b       16.1137
_cell_length_c       15.8133
_cell_angle_alpha    90
_cell_angle_beta     95.09
_cell_angle_gamma    90

_symmetry_space_group_name_H-M    "P 1"
_symmetry_int_tables_number       1

loop_
  _symmetry_equiv_pos_as_xyz
  'x, y, z'

loop_
  _atom_site_label
  _atom_site_occupancy
  _atom_site_fract_x
  _atom_site_fract_y
  _atom_site_fract_z
  _atom_site_thermal_displace_type
  _atom_site_B_iso_or_equiv
  _atom_site_type_symbol
  Ag1      1.0000 0.57247  0.36077  0.77167  Biso   1.000  Ag
  N1       1.0000 0.59710  0.80474  0.61633  Biso   1.000  N
  N2       1.0000 0.77390  0.46808  0.73480  Biso   1.000  N
  C1       1.0000 0.92570  0.50840  0.71690  Biso   1.000  C
  C2       1.0000 0.12190  0.55980  0.69540  Biso   1.000  C
  C3       1.0000 0.20670  0.55330  0.61610  Biso   1.000  C
  H1       1.0000 0.13970  0.51390  0.57620  Biso   1.000  H
  C4       1.0000 0.38940  0.60460  0.59560  Biso   1.000  C
  H2       1.0000 0.44560  0.60130  0.54080  Biso   1.000  H
  C5       1.0000 0.49130  0.66102  0.65480  Biso   1.000  C
  C6       1.0000 0.68660  0.71859  0.63220  Biso   1.000  C
  H3       1.0000 0.81490  0.71920  0.67910  Biso   1.000  H
  H4       1.0000 0.75480  0.69760  0.58070  Biso   1.000  H
  C7       1.0000 0.42690  0.80698  0.53875  Biso   1.000  C
  H5       1.0000 0.28840  0.77120  0.54730  Biso   1.000  H
  H6       1.0000 0.50540  0.78480  0.49000  Biso   1.000  H
  C8       1.0000 0.34250  0.89473  0.51922  Biso   1.000  C
  H7       1.0000 0.25400  0.91490  0.56650  Biso   1.000  H
  H8       1.0000 0.23100  0.89400  0.46720  Biso   1.000  H
  C9       1.0000 0.54380  0.95502  0.50634  Biso   1.000  C
  H9       1.0000 0.61970  0.93770  0.45430  Biso   1.000  H
  C10      1.0000 0.73070  0.94699  0.58312  Biso   1.000  C
  H10      1.0000 0.87260  0.98020  0.57250  Biso   1.000  H
  H11      1.0000 0.66430  0.96980  0.63410  Biso   1.000  H
  C11      1.0000 0.80450  0.85755  0.59980  Biso   1.000  C
  H12      1.0000 0.87910  0.83560  0.55010  Biso   1.000  H
  H13      1.0000 0.92410  0.85530  0.64950  Biso   1.000  H
  C12      1.0000 0.22130  0.61574  0.75530  Biso   1.000  C
  H14      1.0000 0.16110  0.62020  0.80940  Biso   1.000  H
  C13      1.0000 0.41050  0.66510  0.73490  Biso   1.000  C
  H15      1.0000 0.48470  0.70180  0.77610  Biso   1.000  H
  Ag2      1.0000 0.42753  0.86077  0.72833  Biso   1.000  Ag
  N3       1.0000 0.40290  0.30474  0.88367  Biso   1.000  N
  N4       1.0000 0.22610  0.96808  0.76520  Biso   1.000  N
  C14      1.0000 0.07430  0.00840  0.78310  Biso   1.000  C
  C15      1.0000 0.87810  0.05980  0.80460  Biso   1.000  C
  C16      1.0000 0.79330  0.05330  0.88390  Biso   1.000  C
  H16      1.0000 0.86030  0.01390  0.92380  Biso   1.000  H
  C17      1.0000 0.61060  0.10460  0.90440  Biso   1.000  C
  H17      1.0000 0.55440  0.10130  0.95920  Biso   1.000  H
  C18      1.0000 0.50870  0.16102  0.84520  Biso   1.000  C
  C19      1.0000 0.31340  0.21859  0.86780  Biso   1.000  C
  H18      1.0000 0.18510  0.21920  0.82090  Biso   1.000  H
  H19      1.0000 0.24520  0.19760  0.91930  Biso   1.000  H
  C20      1.0000 0.57310  0.30698  0.96125  Biso   1.000  C
  H20      1.0000 0.71160  0.27120  0.95270  Biso   1.000  H
  H21      1.0000 0.49460  0.28480  0.01000  Biso   1.000  H
  C21      1.0000 0.65750  0.39473  0.98078  Biso   1.000  C
  H22      1.0000 0.74600  0.41490  0.93350  Biso   1.000  H
  H23      1.0000 0.76900  0.39400  0.03280  Biso   1.000  H
  C22      1.0000 0.45620  0.45502  0.99366  Biso   1.000  C
  H24      1.0000 0.38030  0.43770  0.04570  Biso   1.000  H
  C23      1.0000 0.26930  0.44699  0.91688  Biso   1.000  C
  H25      1.0000 0.12740  0.48020  0.92750  Biso   1.000  H
  H26      1.0000 0.33570  0.46980  0.86590  Biso   1.000  H
  C24      1.0000 0.19550  0.35755  0.90020  Biso   1.000  C
  H27      1.0000 0.12090  0.33560  0.94990  Biso   1.000  H
  H28      1.0000 0.07590  0.35530  0.85050  Biso   1.000  H
  C25      1.0000 0.77870  0.11574  0.74470  Biso   1.000  C
  H29      1.0000 0.83890  0.12020  0.69060  Biso   1.000  H
  C26      1.0000 0.58950  0.16510  0.76510  Biso   1.000  C
  H30      1.0000 0.51530  0.20180  0.72390  Biso   1.000  H
  Ag3      1.0000 0.42753  0.63923  0.22833  Biso   1.000  Ag
  N5       1.0000 0.40290  0.19526  0.38367  Biso   1.000  N
  N6       1.0000 0.22610  0.53192  0.26520  Biso   1.000  N
  C27      1.0000 0.07430  0.49160  0.28310  Biso   1.000  C
  C28      1.0000 0.87810  0.44020  0.30460  Biso   1.000  C
  C29      1.0000 0.79330  0.44670  0.38390  Biso   1.000  C
  H31      1.0000 0.86030  0.48610  0.42380  Biso   1.000  H
  C30      1.0000 0.61060  0.39540  0.40440  Biso   1.000  C
  H32      1.0000 0.55440  0.39870  0.45920  Biso   1.000  H
  C31      1.0000 0.50870  0.33898  0.34520  Biso   1.000  C
  C32      1.0000 0.31340  0.28141  0.36780  Biso   1.000  C
  H33      1.0000 0.18510  0.28080  0.32090  Biso   1.000  H
  H34      1.0000 0.24520  0.30240  0.41930  Biso   1.000  H
  C33      1.0000 0.57310  0.19302  0.46125  Biso   1.000  C
  H35      1.0000 0.71160  0.22880  0.45270  Biso   1.000  H
  H36      1.0000 0.49460  0.21520  0.51000  Biso   1.000  H
  C34      1.0000 0.65750  0.10527  0.48078  Biso   1.000  C
  H37      1.0000 0.74600  0.08510  0.43350  Biso   1.000  H
  H38      1.0000 0.76900  0.10600  0.53280  Biso   1.000  H
  C35      1.0000 0.45620  0.04498  0.49366  Biso   1.000  C
  H39      1.0000 0.38030  0.06230  0.54570  Biso   1.000  H
  C36      1.0000 0.26930  0.05301  0.41688  Biso   1.000  C
  H40      1.0000 0.12740  0.01980  0.42750  Biso   1.000  H
  H41      1.0000 0.33570  0.03020  0.36590  Biso   1.000  H
  C37      1.0000 0.19550  0.14245  0.40020  Biso   1.000  C
  H42      1.0000 0.12090  0.16440  0.44990  Biso   1.000  H
  H43      1.0000 0.07590  0.14470  0.35050  Biso   1.000  H
  C38      1.0000 0.77870  0.38426  0.24470  Biso   1.000  C
  H44      1.0000 0.83890  0.37980  0.19060  Biso   1.000  H
  C39      1.0000 0.58950  0.33490  0.26510  Biso   1.000  C
  H45      1.0000 0.51530  0.29820  0.22390  Biso   1.000  H
  Ag4      1.0000 0.57247  0.13923  0.27167  Biso   1.000  Ag
  N7       1.0000 0.59710  0.69526  0.11633  Biso   1.000  N
  N8       1.0000 0.77390  0.03192  0.23480  Biso   1.000  N
  C40      1.0000 0.92570  0.99160  0.21690  Biso   1.000  C
  C41      1.0000 0.12190  0.94020  0.19540  Biso   1.000  C
  C42      1.0000 0.20670  0.94670  0.11610  Biso   1.000  C
  H46      1.0000 0.13970  0.98610  0.07620  Biso   1.000  H
  C43      1.0000 0.38940  0.89540  0.09560  Biso   1.000  C
  H47      1.0000 0.44560  0.89870  0.04080  Biso   1.000  H
  C44      1.0000 0.49130  0.83898  0.15480  Biso   1.000  C
  C45      1.0000 0.68660  0.78141  0.13220  Biso   1.000  C
  H48      1.0000 0.81490  0.78080  0.17910  Biso   1.000  H
  H49      1.0000 0.75480  0.80240  0.08070  Biso   1.000  H
  C46      1.0000 0.42690  0.69302  0.03875  Biso   1.000  C
  H50      1.0000 0.28840  0.72880  0.04730  Biso   1.000  H
  H51      1.0000 0.50540  0.71520  0.99000  Biso   1.000  H
  C47      1.0000 0.34250  0.60527  0.01922  Biso   1.000  C
  H52      1.0000 0.25400  0.58510  0.06650  Biso   1.000  H
  H53      1.0000 0.23100  0.60600  0.96720  Biso   1.000  H
  C48      1.0000 0.54380  0.54498  0.00634  Biso   1.000  C
  H54      1.0000 0.61970  0.56230  0.95430  Biso   1.000  H
  C49      1.0000 0.73070  0.55301  0.08312  Biso   1.000  C
  H55      1.0000 0.87260  0.51980  0.07250  Biso   1.000  H
  H56      1.0000 0.66430  0.53020  0.13410  Biso   1.000  H
  C50      1.0000 0.80450  0.64245  0.09980  Biso   1.000  C
  H57      1.0000 0.87910  0.66440  0.05010  Biso   1.000  H
  H58      1.0000 0.92410  0.64470  0.14950  Biso   1.000  H
  C51      1.0000 0.22130  0.88426  0.25530  Biso   1.000  C
  H59      1.0000 0.16110  0.87980  0.30940  Biso   1.000  H
  C52      1.0000 0.41050  0.83490  0.23490  Biso   1.000  C
  H60      1.0000 0.48470  0.79820  0.27610  Biso   1.000  H
