data_image0
_cell_length_a       9.394
_cell_length_b       14.0082
_cell_length_c       15.0044
_cell_angle_alpha    116.249
_cell_angle_beta     106.52
_cell_angle_gamma    91.906

_symmetry_space_group_name_H-M    "P 1"
_symmetry_int_tables_number       1

loop_
  _symmetry_equiv_pos_as_xyz
  'x, y, z'

loop_
  _atom_site_label
  _atom_site_occupancy
  _atom_site_fract_x
  _atom_site_fract_y
  _atom_site_fract_z
  _atom_site_thermal_displace_type
  _atom_site_B_iso_or_equiv
  _atom_site_type_symbol
  Ag1      1.0000 0.72870  0.73057  0.48473  Biso   1.000  Ag
  N1       1.0000 0.77940  0.69873  0.61977  Biso   1.000  N
  N2       1.0000 0.68950  0.76558  0.35277  Biso   1.000  N
  N3       1.0000 0.82030  0.31487  0.89370  Biso   1.000  N
  N4       1.0000 0.70100  0.17320  0.07500  Biso   1.000  N
  C1       1.0000 0.79290  0.51111  0.49910  Biso   1.000  C
  H1       1.0000 0.76150  0.52430  0.43730  Biso   1.000  H
  H2       1.0000 0.75400  0.43410  0.47460  Biso   1.000  H
  C2       1.0000 0.67140  0.93020  0.67770  Biso   1.000  C
  H3       1.0000 0.60510  0.88530  0.60780  Biso   1.000  H
  C3       1.0000 0.69870  0.04090  0.71630  Biso   1.000  C
  H4       1.0000 0.65430  0.07200  0.67260  Biso   1.000  H
  C4       1.0000 0.54330  0.50870  0.25820  Biso   1.000  C
  H5       1.0000 0.50400  0.53650  0.31480  Biso   1.000  H
  C5       1.0000 0.72280  0.58158  0.57910  Biso   1.000  C
  H6       1.0000 0.61150  0.56550  0.54590  Biso   1.000  H
  H7       1.0000 0.74720  0.56460  0.63850  Biso   1.000  H
  C6       1.0000 0.57270  0.57370  0.21490  Biso   1.000  C
  C7       1.0000 0.02560  0.65481  0.59627  Biso   1.000  C
  H8       1.0000 0.13540  0.66980  0.63470  Biso   1.000  H
  H9       1.0000 0.01120  0.67780  0.54120  Biso   1.000  H
  C8       1.0000 0.96610  0.53232  0.54320  Biso   1.000  C
  H10      1.0000 0.99620  0.50820  0.59830  Biso   1.000  H
  C9       1.0000 0.78700  0.96200  0.47840  Biso   1.000  C
  H11      1.0000 0.80390  0.95020  0.54070  Biso   1.000  H
  H12      1.0000 0.76030  0.03460  0.49710  Biso   1.000  H
  C10      1.0000 0.93310  0.95970  0.45260  Biso   1.000  C
  H13      1.0000 0.91770  0.98060  0.39530  Biso   1.000  H
  C11      1.0000 0.79160  0.10680  0.81980  Biso   1.000  C
  C12      1.0000 0.96220  0.84300  0.40960  Biso   1.000  C
  H14      1.0000 0.04900  0.83890  0.38380  Biso   1.000  H
  H15      1.0000 0.98970  0.82380  0.46760  Biso   1.000  H
  C13      1.0000 0.62270  0.52940  0.12850  Biso   1.000  C
  H16      1.0000 0.63830  0.57190  0.09620  Biso   1.000  H
  C14      1.0000 0.81020  0.22310  0.86190  Biso   1.000  C
  C15      1.0000 0.57060  0.40420  0.21990  Biso   1.000  C
  H17      1.0000 0.55120  0.36070  0.25050  Biso   1.000  H
  C16      1.0000 0.82610  0.76120  0.32040  Biso   1.000  C
  H18      1.0000 0.80450  0.77590  0.25960  Biso   1.000  H
  H19      1.0000 0.84990  0.68750  0.29770  Biso   1.000  H
  C17      1.0000 0.65010  0.42510  0.08900  Biso   1.000  C
  H20      1.0000 0.68450  0.39620  0.03020  Biso   1.000  H
  C18      1.0000 0.86120  0.06130  0.88290  Biso   1.000  C
  H21      1.0000 0.92550  0.10620  0.95340  Biso   1.000  H
  C19      1.0000 0.73980  0.88310  0.73950  Biso   1.000  C
  C20      1.0000 0.55400  0.69040  0.26080  Biso   1.000  C
  H22      1.0000 0.53500  0.71300  0.20520  Biso   1.000  H
  H23      1.0000 0.46440  0.69680  0.28390  Biso   1.000  H
  C21      1.0000 0.83530  0.94960  0.84150  Biso   1.000  C
  H24      1.0000 0.88400  0.91820  0.88390  Biso   1.000  H
  C22      1.0000 0.65590  0.87730  0.38790  Biso   1.000  C
  H25      1.0000 0.56570  0.88100  0.41020  Biso   1.000  H
  H26      1.0000 0.63210  0.89330  0.32780  Biso   1.000  H
  C23      1.0000 0.62680  0.36250  0.13630  Biso   1.000  C
  C24      1.0000 0.94680  0.72140  0.67300  Biso   1.000  C
  H27      1.0000 0.96930  0.70400  0.73210  Biso   1.000  H
  H28      1.0000 0.98630  0.79940  0.70240  Biso   1.000  H
  C25      1.0000 0.70360  0.76210  0.69730  Biso   1.000  C
  H29      1.0000 0.73420  0.74590  0.75720  Biso   1.000  H
  H30      1.0000 0.59290  0.73760  0.66290  Biso   1.000  H
  C26      1.0000 0.66610  0.25630  0.10100  Biso   1.000  C
  Ag2      1.0000 0.27130  0.26943  0.51527  Biso   1.000  Ag
  N5       1.0000 0.22060  0.30127  0.38023  Biso   1.000  N
  N6       1.0000 0.31050  0.23442  0.64723  Biso   1.000  N
  N7       1.0000 0.17970  0.68513  0.10630  Biso   1.000  N
  N8       1.0000 0.29900  0.82680  0.92500  Biso   1.000  N
  C27      1.0000 0.20710  0.48889  0.50090  Biso   1.000  C
  H31      1.0000 0.23850  0.47570  0.56270  Biso   1.000  H
  H32      1.0000 0.24600  0.56590  0.52540  Biso   1.000  H
  C28      1.0000 0.32860  0.06980  0.32230  Biso   1.000  C
  H33      1.0000 0.39490  0.11470  0.39220  Biso   1.000  H
  C29      1.0000 0.30130  0.95910  0.28370  Biso   1.000  C
  H34      1.0000 0.34570  0.92800  0.32740  Biso   1.000  H
  C30      1.0000 0.45670  0.49130  0.74180  Biso   1.000  C
  H35      1.0000 0.49600  0.46350  0.68520  Biso   1.000  H
  C31      1.0000 0.27720  0.41842  0.42090  Biso   1.000  C
  H36      1.0000 0.38850  0.43450  0.45410  Biso   1.000  H
  H37      1.0000 0.25280  0.43540  0.36150  Biso   1.000  H
  C32      1.0000 0.42730  0.42630  0.78510  Biso   1.000  C
  C33      1.0000 0.97440  0.34519  0.40373  Biso   1.000  C
  H38      1.0000 0.86460  0.33020  0.36530  Biso   1.000  H
  H39      1.0000 0.98880  0.32220  0.45880  Biso   1.000  H
  C34      1.0000 0.03390  0.46768  0.45680  Biso   1.000  C
  H40      1.0000 0.00380  0.49180  0.40170  Biso   1.000  H
  C35      1.0000 0.21300  0.03800  0.52160  Biso   1.000  C
  H41      1.0000 0.19610  0.04980  0.45930  Biso   1.000  H
  H42      1.0000 0.23970  0.96540  0.50290  Biso   1.000  H
  C36      1.0000 0.06690  0.04030  0.54740  Biso   1.000  C
  H43      1.0000 0.08230  0.01940  0.60470  Biso   1.000  H
  C37      1.0000 0.20840  0.89320  0.18020  Biso   1.000  C
  C38      1.0000 0.03780  0.15700  0.59040  Biso   1.000  C
  H44      1.0000 0.95100  0.16110  0.61620  Biso   1.000  H
  H45      1.0000 0.01030  0.17620  0.53240  Biso   1.000  H
  C39      1.0000 0.37730  0.47060  0.87150  Biso   1.000  C
  H46      1.0000 0.36170  0.42810  0.90380  Biso   1.000  H
  C40      1.0000 0.18980  0.77690  0.13810  Biso   1.000  C
  C41      1.0000 0.42940  0.59580  0.78010  Biso   1.000  C
  H47      1.0000 0.44880  0.63930  0.74950  Biso   1.000  H
  C42      1.0000 0.17390  0.23880  0.67960  Biso   1.000  C
  H48      1.0000 0.19550  0.22410  0.74040  Biso   1.000  H
  H49      1.0000 0.15010  0.31250  0.70230  Biso   1.000  H
  C43      1.0000 0.34990  0.57490  0.91100  Biso   1.000  C
  H50      1.0000 0.31550  0.60380  0.96980  Biso   1.000  H
  C44      1.0000 0.13880  0.93870  0.11710  Biso   1.000  C
  H51      1.0000 0.07450  0.89380  0.04660  Biso   1.000  H
  C45      1.0000 0.26020  0.11690  0.26050  Biso   1.000  C
  C46      1.0000 0.44600  0.30960  0.73920  Biso   1.000  C
  H52      1.0000 0.46500  0.28700  0.79480  Biso   1.000  H
  H53      1.0000 0.53560  0.30320  0.71610  Biso   1.000  H
  C47      1.0000 0.16470  0.05040  0.15850  Biso   1.000  C
  H54      1.0000 0.11600  0.08180  0.11610  Biso   1.000  H
  C48      1.0000 0.34410  0.12270  0.61210  Biso   1.000  C
  H55      1.0000 0.43430  0.11900  0.58980  Biso   1.000  H
  H56      1.0000 0.36790  0.10670  0.67220  Biso   1.000  H
  C49      1.0000 0.37320  0.63750  0.86370  Biso   1.000  C
  C50      1.0000 0.05320  0.27860  0.32700  Biso   1.000  C
  H57      1.0000 0.03070  0.29600  0.26790  Biso   1.000  H
  H58      1.0000 0.01370  0.20060  0.29760  Biso   1.000  H
  C51      1.0000 0.29640  0.23790  0.30270  Biso   1.000  C
  H59      1.0000 0.26580  0.25410  0.24280  Biso   1.000  H
  H60      1.0000 0.40710  0.26240  0.33710  Biso   1.000  H
  C52      1.0000 0.33390  0.74370  0.89900  Biso   1.000  C
