data_image0
_cell_length_a       13.369
_cell_length_b       16.12
_cell_length_c       16.459
_cell_angle_alpha    78.684
_cell_angle_beta     83.297
_cell_angle_gamma    72.579

_symmetry_space_group_name_H-M    "P 1"
_symmetry_int_tables_number       1

loop_
  _symmetry_equiv_pos_as_xyz
  'x, y, z'

loop_
  _atom_site_label
  _atom_site_occupancy
  _atom_site_fract_x
  _atom_site_fract_y
  _atom_site_fract_z
  _atom_site_thermal_displace_type
  _atom_site_B_iso_or_equiv
  _atom_site_type_symbol
  Zn1      1.0000 0.80258  0.14682  0.15520  Biso   1.000  Zn
  C1       1.0000 0.18500  0.77670  0.01740  Biso   1.000  C
  C2       1.0000 0.20820  0.68520  0.00010  Biso   1.000  C
  H1       1.0000 0.28170  0.65520  0.00910  Biso   1.000  H
  H2       1.0000 0.16690  0.65420  0.04020  Biso   1.000  H
  C3       1.0000 0.09450  0.66590  0.91550  Biso   1.000  C
  C4       1.0000 0.00100  0.71690  0.94800  Biso   1.000  C
  H3       1.0000 0.00150  0.75860  0.97980  Biso   1.000  H
  C5       1.0000 0.90750  0.70520  0.93270  Biso   1.000  C
  C6       1.0000 0.90590  0.64300  0.88700  Biso   1.000  C
  C7       1.0000 0.00110  0.59610  0.85550  Biso   1.000  C
  H4       1.0000 0.00090  0.55490  0.82310  Biso   1.000  H
  C8       1.0000 0.09760  0.60540  0.86830  Biso   1.000  C
  C9       1.0000 0.80860  0.82030  0.00260  Biso   1.000  C
  H5       1.0000 0.73680  0.84920  0.01770  Biso   1.000  H
  H6       1.0000 0.84020  0.86260  0.96880  Biso   1.000  H
  H7       1.0000 0.84630  0.79470  0.05180  Biso   1.000  H
  C10      1.0000 0.80140  0.63070  0.86980  Biso   1.000  C
  H8       1.0000 0.75870  0.68920  0.84520  Biso   1.000  H
  C11      1.0000 0.80350  0.57380  0.81390  Biso   1.000  C
  C12      1.0000 0.75410  0.60470  0.73780  Biso   1.000  C
  H9       1.0000 0.72330  0.66520  0.72400  Biso   1.000  H
  C13      1.0000 0.74830  0.55560  0.68530  Biso   1.000  C
  H10      1.0000 0.71160  0.58080  0.63770  Biso   1.000  H
  C14      1.0000 0.79750  0.46480  0.70080  Biso   1.000  C
  H11      1.0000 0.79760  0.42890  0.66290  Biso   1.000  H
  C15      1.0000 0.84650  0.43040  0.77540  Biso   1.000  C
  H12      1.0000 0.87640  0.36990  0.78930  Biso   1.000  H
  C16      1.0000 0.85090  0.48360  0.82730  Biso   1.000  C
  H13      1.0000 0.88780  0.45860  0.87490  Biso   1.000  H
  C17      1.0000 0.16540  0.42430  0.78480  Biso   1.000  C
  H14      1.0000 0.15510  0.39640  0.83890  Biso   1.000  H
  C18      1.0000 0.15290  0.38750  0.71830  Biso   1.000  C
  H15      1.0000 0.13430  0.33510  0.72790  Biso   1.000  H
  C19      1.0000 0.16830  0.42910  0.63740  Biso   1.000  C
  H16      1.0000 0.16000  0.40450  0.59290  Biso   1.000  H
  C20      1.0000 0.19620  0.50740  0.62300  Biso   1.000  C
  H17      1.0000 0.20650  0.53520  0.56890  Biso   1.000  H
  C21      1.0000 0.20860  0.54420  0.68950  Biso   1.000  C
  H18      1.0000 0.22720  0.59660  0.67990  Biso   1.000  H
  C22      1.0000 0.19320  0.50260  0.77040  Biso   1.000  C
  C23      1.0000 0.74210  0.60450  0.95290  Biso   1.000  C
  C24      1.0000 0.79110  0.54680  0.01990  Biso   1.000  C
  H19      1.0000 0.86420  0.52950  0.01740  Biso   1.000  H
  C25      1.0000 0.20220  0.54910  0.83800  Biso   1.000  C
  H20      1.0000 0.24450  0.58920  0.81420  Biso   1.000  H
  C26      1.0000 0.26030  0.48660  0.91020  Biso   1.000  C
  C27      1.0000 0.36960  0.45710  0.90690  Biso   1.000  C
  C28      1.0000 0.42090  0.40040  0.97200  Biso   1.000  C
  H21      1.0000 0.49390  0.38180  0.96950  Biso   1.000  H
  C29      1.0000 0.36510  0.37100  0.04080  Biso   1.000  C
  C30      1.0000 0.53180  0.46450  0.83320  Biso   1.000  C
  H22      1.0000 0.55790  0.49170  0.78120  Biso   1.000  H
  H23      1.0000 0.55830  0.40150  0.83820  Biso   1.000  H
  H24      1.0000 0.55460  0.48320  0.87800  Biso   1.000  H
  C31      1.0000 0.50590  0.31680  0.13060  Biso   1.000  C
  H25      1.0000 0.49860  0.32100  0.18910  Biso   1.000  H
  H26      1.0000 0.51960  0.37060  0.10000  Biso   1.000  H
  C32      1.0000 0.59730  0.24200  0.11660  Biso   1.000  C
  C33      1.0000 0.97690  0.14260  0.23190  Biso   1.000  C
  C34      1.0000 0.02550  0.17650  0.29030  Biso   1.000  C
  H27      1.0000 0.03940  0.23130  0.26310  Biso   1.000  H
  H28      1.0000 0.97710  0.18840  0.33810  Biso   1.000  H
  C35      1.0000 0.17040  0.14110  0.37260  Biso   1.000  C
  C36      1.0000 0.13690  0.21940  0.39660  Biso   1.000  C
  H29      1.0000 0.07610  0.25960  0.37540  Biso   1.000  H
  C37      1.0000 0.18810  0.24270  0.45090  Biso   1.000  C
  C38      1.0000 0.28130  0.18120  0.48290  Biso   1.000  C
  C39      1.0000 0.31230  0.10280  0.45740  Biso   1.000  C
  H30      1.0000 0.37410  0.06300  0.47730  Biso   1.000  H
  C40      1.0000 0.26020  0.07580  0.40400  Biso   1.000  C
  C41      1.0000 0.06250  0.38580  0.44650  Biso   1.000  C
  H31      1.0000 0.05110  0.43820  0.47000  Biso   1.000  H
  H32      1.0000 0.00400  0.36210  0.46250  Biso   1.000  H
  H33      1.0000 0.06960  0.40010  0.38710  Biso   1.000  H
  C42      1.0000 0.34310  0.21130  0.53770  Biso   1.000  C
  H34      1.0000 0.29120  0.24790  0.57300  Biso   1.000  H
  C43      1.0000 0.46260  0.24620  0.41280  Biso   1.000  C
  H35      1.0000 0.46230  0.19570  0.39350  Biso   1.000  H
  C44      1.0000 0.40180  0.26880  0.48670  Biso   1.000  C
  C45      1.0000 0.40980  0.34070  0.51130  Biso   1.000  C
  H36      1.0000 0.37230  0.35470  0.56040  Biso   1.000  H
  C46      1.0000 0.46540  0.39410  0.47330  Biso   1.000  C
  H37      1.0000 0.46390  0.44510  0.49230  Biso   1.000  H
  C47      1.0000 0.52520  0.36940  0.40410  Biso   1.000  C
  H38      1.0000 0.57070  0.40180  0.37860  Biso   1.000  H
  C48      1.0000 0.52110  0.29910  0.37060  Biso   1.000  C
  H39      1.0000 0.55730  0.28770  0.32030  Biso   1.000  H
  C49      1.0000 0.29740  0.98830  0.37970  Biso   1.000  C
  H40      1.0000 0.26620  0.99470  0.32700  Biso   1.000  H
  C50      1.0000 0.23450  0.77190  0.45720  Biso   1.000  C
  H41      1.0000 0.23220  0.72330  0.43580  Biso   1.000  H
  C51      1.0000 0.26030  0.84240  0.40490  Biso   1.000  C
  H42      1.0000 0.27540  0.84090  0.34850  Biso   1.000  H
  C52      1.0000 0.26370  0.91500  0.43700  Biso   1.000  C
  C53      1.0000 0.24120  0.91720  0.52120  Biso   1.000  C
  H43      1.0000 0.24350  0.96590  0.54270  Biso   1.000  H
  C54      1.0000 0.21540  0.84680  0.57350  Biso   1.000  C
  H44      1.0000 0.20040  0.84820  0.62990  Biso   1.000  H
  C55      1.0000 0.21200  0.77410  0.54150  Biso   1.000  C
  H45      1.0000 0.19470  0.72700  0.57640  Biso   1.000  H
  C56      1.0000 0.41830  0.95750  0.36050  Biso   1.000  C
  C57      1.0000 0.48230  0.89390  0.41670  Biso   1.000  C
  H46      1.0000 0.45090  0.86990  0.46540  Biso   1.000  H
  C58      1.0000 0.58960  0.86450  0.40430  Biso   1.000  C
  C59      1.0000 0.63120  0.90330  0.33070  Biso   1.000  C
  C60      1.0000 0.57100  0.96540  0.27310  Biso   1.000  C
  H47      1.0000 0.60090  0.98940  0.22360  Biso   1.000  H
  C61      1.0000 0.46310  0.99120  0.29160  Biso   1.000  C
  C62      1.0000 0.41920  0.12310  0.19240  Biso   1.000  C
  H48      1.0000 0.36560  0.15540  0.15480  Biso   1.000  H
  H49      1.0000 0.48580  0.10730  0.16180  Biso   1.000  H
  H50      1.0000 0.42250  0.15920  0.23150  Biso   1.000  H
  C63      1.0000 0.44690  0.07910  0.15250  Biso   1.000  C
  H51      1.0000 0.39410  0.11790  0.11690  Biso   1.000  H
  H52      1.0000 0.48430  0.02890  0.12710  Biso   1.000  H
  H53      1.0000 0.49510  0.10990  0.16110  Biso   1.000  H
  C64      1.0000 0.77920  0.88970  0.23530  Biso   1.000  C
  H54      1.0000 0.73050  0.88050  0.20100  Biso   1.000  H
  H55      1.0000 0.84480  0.84400  0.22930  Biso   1.000  H
  C65      1.0000 0.79920  0.97320  0.19810  Biso   1.000  C
  O1       1.0000 0.39630  0.04920  0.23360  Biso   1.000  O
  O2       1.0000 0.74110  0.87320  0.31650  Biso   1.000  O
  O3       1.0000 0.84220  0.97270  0.12730  Biso   1.000  O
  O4       1.0000 0.78880  0.02680  0.21910  Biso   1.000  O
  O5       1.0000 0.19600  0.78560  0.08780  Biso   1.000  O
  O6       1.0000 0.14860  0.84450  0.95990  Biso   1.000  O
  O7       1.0000 0.18980  0.67870  0.92560  Biso   1.000  O
  O8       1.0000 0.81200  0.75540  0.95880  Biso   1.000  O
  O9       1.0000 0.42090  0.48940  0.83640  Biso   1.000  O
  O10      1.0000 0.41270  0.31230  0.10780  Biso   1.000  O
  O11      1.0000 0.60070  0.20530  0.05760  Biso   1.000  O
  O12      1.0000 0.66310  0.22450  0.16930  Biso   1.000  O
  O13      1.0000 0.88180  0.17960  0.22690  Biso   1.000  O
  O14      1.0000 0.02980  0.08550  0.19400  Biso   1.000  O
  O15      1.0000 0.12080  0.11420  0.31700  Biso   1.000  O
  O16      1.0000 0.15790  0.32090  0.47670  Biso   1.000  O
  Zn2      1.0000 0.19742  0.85318  0.84480  Biso   1.000  Zn
  C66      1.0000 0.81500  0.22330  0.98260  Biso   1.000  C
  C67      1.0000 0.79180  0.31480  0.99990  Biso   1.000  C
  H56      1.0000 0.71830  0.34480  0.99090  Biso   1.000  H
  H57      1.0000 0.83310  0.34580  0.95980  Biso   1.000  H
  C68      1.0000 0.90550  0.33410  0.08450  Biso   1.000  C
  C69      1.0000 0.99900  0.28310  0.05200  Biso   1.000  C
  H58      1.0000 0.99850  0.24140  0.02020  Biso   1.000  H
  C70      1.0000 0.09250  0.29480  0.06730  Biso   1.000  C
  C71      1.0000 0.09410  0.35700  0.11300  Biso   1.000  C
  C72      1.0000 0.99890  0.40390  0.14450  Biso   1.000  C
  H59      1.0000 0.99910  0.44510  0.17690  Biso   1.000  H
  C73      1.0000 0.90240  0.39460  0.13170  Biso   1.000  C
  C74      1.0000 0.19140  0.17970  0.99740  Biso   1.000  C
  H60      1.0000 0.26320  0.15080  0.98230  Biso   1.000  H
  H61      1.0000 0.15980  0.13740  0.03120  Biso   1.000  H
  H62      1.0000 0.15370  0.20530  0.94820  Biso   1.000  H
  C75      1.0000 0.19860  0.36930  0.13020  Biso   1.000  C
  H63      1.0000 0.24130  0.31080  0.15480  Biso   1.000  H
  C76      1.0000 0.19650  0.42620  0.18610  Biso   1.000  C
  C77      1.0000 0.24590  0.39530  0.26220  Biso   1.000  C
  H64      1.0000 0.27670  0.33480  0.27600  Biso   1.000  H
  C78      1.0000 0.25170  0.44440  0.31470  Biso   1.000  C
  H65      1.0000 0.28840  0.41920  0.36230  Biso   1.000  H
  C79      1.0000 0.20250  0.53520  0.29920  Biso   1.000  C
  H66      1.0000 0.20240  0.57110  0.33710  Biso   1.000  H
  C80      1.0000 0.15350  0.56960  0.22460  Biso   1.000  C
  H67      1.0000 0.12360  0.63010  0.21070  Biso   1.000  H
  C81      1.0000 0.14910  0.51640  0.17270  Biso   1.000  C
  H68      1.0000 0.11220  0.54140  0.12510  Biso   1.000  H
  C82      1.0000 0.83460  0.57570  0.21520  Biso   1.000  C
  H69      1.0000 0.84490  0.60360  0.16110  Biso   1.000  H
  C83      1.0000 0.84710  0.61250  0.28170  Biso   1.000  C
  H70      1.0000 0.86570  0.66490  0.27210  Biso   1.000  H
  C84      1.0000 0.83170  0.57090  0.36260  Biso   1.000  C
  H71      1.0000 0.84000  0.59550  0.40710  Biso   1.000  H
  C85      1.0000 0.80380  0.49260  0.37700  Biso   1.000  C
  H72      1.0000 0.79350  0.46480  0.43110  Biso   1.000  H
  C86      1.0000 0.79140  0.45580  0.31050  Biso   1.000  C
  H73      1.0000 0.77280  0.40340  0.32010  Biso   1.000  H
  C87      1.0000 0.80680  0.49740  0.22960  Biso   1.000  C
  C88      1.0000 0.25790  0.39550  0.04710  Biso   1.000  C
  C89      1.0000 0.20890  0.45320  0.98010  Biso   1.000  C
  H74      1.0000 0.13580  0.47050  0.98260  Biso   1.000  H
  C90      1.0000 0.79780  0.45090  0.16200  Biso   1.000  C
  H75      1.0000 0.75550  0.41080  0.18580  Biso   1.000  H
  C91      1.0000 0.73970  0.51340  0.08980  Biso   1.000  C
  C92      1.0000 0.63040  0.54290  0.09310  Biso   1.000  C
  C93      1.0000 0.57910  0.59960  0.02800  Biso   1.000  C
  H76      1.0000 0.50610  0.61820  0.03050  Biso   1.000  H
  C94      1.0000 0.63490  0.62900  0.95920  Biso   1.000  C
  C95      1.0000 0.46820  0.53550  0.16680  Biso   1.000  C
  H77      1.0000 0.44210  0.50830  0.21880  Biso   1.000  H
  H78      1.0000 0.44170  0.59850  0.16180  Biso   1.000  H
  H79      1.0000 0.44540  0.51680  0.12200  Biso   1.000  H
  C96      1.0000 0.49410  0.68320  0.86940  Biso   1.000  C
  H80      1.0000 0.50140  0.67900  0.81090  Biso   1.000  H
  H81      1.0000 0.48040  0.62940  0.90000  Biso   1.000  H
  C97      1.0000 0.40270  0.75800  0.88340  Biso   1.000  C
  C98      1.0000 0.02310  0.85740  0.76810  Biso   1.000  C
  C99      1.0000 0.97450  0.82350  0.70970  Biso   1.000  C
  H82      1.0000 0.96060  0.76870  0.73690  Biso   1.000  H
  H83      1.0000 0.02290  0.81160  0.66190  Biso   1.000  H
  C100     1.0000 0.82960  0.85890  0.62740  Biso   1.000  C
  C101     1.0000 0.86310  0.78060  0.60340  Biso   1.000  C
  H84      1.0000 0.92390  0.74040  0.62460  Biso   1.000  H
  C102     1.0000 0.81190  0.75730  0.54910  Biso   1.000  C
  C103     1.0000 0.71870  0.81880  0.51710  Biso   1.000  C
  C104     1.0000 0.68770  0.89720  0.54260  Biso   1.000  C
  H85      1.0000 0.62590  0.93700  0.52270  Biso   1.000  H
  C105     1.0000 0.73980  0.92420  0.59600  Biso   1.000  C
  C106     1.0000 0.93750  0.61420  0.55350  Biso   1.000  C
  H86      1.0000 0.94890  0.56180  0.53000  Biso   1.000  H
  H87      1.0000 0.99600  0.63790  0.53750  Biso   1.000  H
  H88      1.0000 0.93040  0.59990  0.61290  Biso   1.000  H
  C107     1.0000 0.65690  0.78870  0.46230  Biso   1.000  C
  H89      1.0000 0.70880  0.75210  0.42700  Biso   1.000  H
  C108     1.0000 0.53740  0.75380  0.58720  Biso   1.000  C
  H90      1.0000 0.53770  0.80430  0.60650  Biso   1.000  H
  C109     1.0000 0.59820  0.73120  0.51330  Biso   1.000  C
  C110     1.0000 0.59020  0.65930  0.48870  Biso   1.000  C
  H91      1.0000 0.62770  0.64530  0.43960  Biso   1.000  H
  C111     1.0000 0.53460  0.60590  0.52670  Biso   1.000  C
  H92      1.0000 0.53610  0.55490  0.50770  Biso   1.000  H
  C112     1.0000 0.47480  0.63060  0.59590  Biso   1.000  C
  H93      1.0000 0.42930  0.59820  0.62140  Biso   1.000  H
  C113     1.0000 0.47890  0.70090  0.62940  Biso   1.000  C
  H94      1.0000 0.44270  0.71230  0.67970  Biso   1.000  H
  C114     1.0000 0.70260  0.01170  0.62030  Biso   1.000  C
  H95      1.0000 0.73380  0.00530  0.67300  Biso   1.000  H
  C115     1.0000 0.76550  0.22810  0.54280  Biso   1.000  C
  H96      1.0000 0.76780  0.27670  0.56420  Biso   1.000  H
  C116     1.0000 0.73970  0.15760  0.59510  Biso   1.000  C
  H97      1.0000 0.72460  0.15910  0.65150  Biso   1.000  H
  C117     1.0000 0.73630  0.08500  0.56300  Biso   1.000  C
  C118     1.0000 0.75880  0.08280  0.47880  Biso   1.000  C
  H98      1.0000 0.75650  0.03410  0.45730  Biso   1.000  H
  C119     1.0000 0.78460  0.15320  0.42650  Biso   1.000  C
  H99      1.0000 0.79960  0.15180  0.37010  Biso   1.000  H
  C120     1.0000 0.78800  0.22590  0.45850  Biso   1.000  C
  H100     1.0000 0.80530  0.27300  0.42360  Biso   1.000  H
  C121     1.0000 0.58170  0.04250  0.63950  Biso   1.000  C
  C122     1.0000 0.51770  0.10610  0.58330  Biso   1.000  C
  H101     1.0000 0.54910  0.13010  0.53460  Biso   1.000  H
  C123     1.0000 0.41040  0.13550  0.59570  Biso   1.000  C
  C124     1.0000 0.36880  0.09670  0.66930  Biso   1.000  C
  C125     1.0000 0.42900  0.03460  0.72690  Biso   1.000  C
  H102     1.0000 0.39910  0.01060  0.77640  Biso   1.000  H
  C126     1.0000 0.53690  0.00880  0.70840  Biso   1.000  C
  C127     1.0000 0.58080  0.87690  0.80760  Biso   1.000  C
  H103     1.0000 0.63440  0.84460  0.84520  Biso   1.000  H
  H104     1.0000 0.51420  0.89270  0.83820  Biso   1.000  H
  H105     1.0000 0.57750  0.84080  0.76850  Biso   1.000  H
  C128     1.0000 0.55310  0.92090  0.84750  Biso   1.000  C
  H106     1.0000 0.60590  0.88210  0.88310  Biso   1.000  H
  H107     1.0000 0.51570  0.97110  0.87290  Biso   1.000  H
  H108     1.0000 0.50490  0.89010  0.83890  Biso   1.000  H
  C129     1.0000 0.22080  0.11030  0.76470  Biso   1.000  C
  H109     1.0000 0.26950  0.11950  0.79900  Biso   1.000  H
  H110     1.0000 0.15520  0.15600  0.77070  Biso   1.000  H
  C130     1.0000 0.20080  0.02680  0.80190  Biso   1.000  C
  O17      1.0000 0.60370  0.95080  0.76640  Biso   1.000  O
  O18      1.0000 0.25890  0.12680  0.68350  Biso   1.000  O
  O19      1.0000 0.15780  0.02730  0.87270  Biso   1.000  O
  O20      1.0000 0.21120  0.97320  0.78090  Biso   1.000  O
  O21      1.0000 0.80400  0.21440  0.91220  Biso   1.000  O
  O22      1.0000 0.85140  0.15550  0.04010  Biso   1.000  O
  O23      1.0000 0.81020  0.32130  0.07440  Biso   1.000  O
  O24      1.0000 0.18800  0.24460  0.04120  Biso   1.000  O
  O25      1.0000 0.57910  0.51060  0.16360  Biso   1.000  O
  O26      1.0000 0.58730  0.68770  0.89220  Biso   1.000  O
  O27      1.0000 0.39930  0.79470  0.94240  Biso   1.000  O
  O28      1.0000 0.33690  0.77550  0.83070  Biso   1.000  O
  O29      1.0000 0.11820  0.82040  0.77310  Biso   1.000  O
  O30      1.0000 0.97020  0.91450  0.80600  Biso   1.000  O
  O31      1.0000 0.87920  0.88580  0.68300  Biso   1.000  O
  O32      1.0000 0.84210  0.67910  0.52330  Biso   1.000  O
