data_image0
_cell_length_a       9.137
_cell_length_b       15.4381
_cell_length_c       10.6689
_cell_angle_alpha    90
_cell_angle_beta     103.544
_cell_angle_gamma    90

_symmetry_space_group_name_H-M    "P 1"
_symmetry_int_tables_number       1

loop_
  _symmetry_equiv_pos_as_xyz
  'x, y, z'

loop_
  _atom_site_label
  _atom_site_occupancy
  _atom_site_fract_x
  _atom_site_fract_y
  _atom_site_fract_z
  _atom_site_thermal_displace_type
  _atom_site_B_iso_or_equiv
  _atom_site_type_symbol
  Ni1      1.0000 0.13164  0.10083  0.46740  Biso   1.000  Ni
  N1       1.0000 0.92920  0.05905  0.35550  Biso   1.000  N
  N2       1.0000 0.84960  0.99113  0.39330  Biso   1.000  N
  N3       1.0000 0.71420  0.04694  0.21640  Biso   1.000  N
  N4       1.0000 0.58870  0.05670  0.11330  Biso   1.000  N
  H1       1.0000 0.61610  0.04830  0.03940  Biso   1.000  H
  H2       1.0000 0.55240  0.11000  0.11490  Biso   1.000  H
  N5       1.0000 0.61030  0.92847  0.31290  Biso   1.000  N
  H3       1.0000 0.52060  0.93150  0.26490  Biso   1.000  H
  N6       1.0000 0.65930  0.86261  0.40720  Biso   1.000  N
  H4       1.0000 0.67060  0.81230  0.36780  Biso   1.000  H
  H5       1.0000 0.58960  0.85470  0.45330  Biso   1.000  H
  C1       1.0000 0.72100  0.98570  0.30760  Biso   1.000  C
  C2       1.0000 0.84570  0.09130  0.24950  Biso   1.000  C
  H6       1.0000 0.87230  0.13760  0.20370  Biso   1.000  H
  Ni2      1.0000 0.86836  0.89917  0.53260  Biso   1.000  Ni
  N7       1.0000 0.07080  0.94095  0.64450  Biso   1.000  N
  N8       1.0000 0.15040  0.00887  0.60670  Biso   1.000  N
  N9       1.0000 0.28580  0.95306  0.78360  Biso   1.000  N
  N10      1.0000 0.41130  0.94330  0.88670  Biso   1.000  N
  H7       1.0000 0.38390  0.95170  0.96060  Biso   1.000  H
  H8       1.0000 0.44760  0.89000  0.88510  Biso   1.000  H
  N11      1.0000 0.38970  0.07153  0.68710  Biso   1.000  N
  H9       1.0000 0.47940  0.06850  0.73510  Biso   1.000  H
  N12      1.0000 0.34070  0.13739  0.59280  Biso   1.000  N
  H10      1.0000 0.32940  0.18770  0.63220  Biso   1.000  H
  H11      1.0000 0.41040  0.14530  0.54670  Biso   1.000  H
  C3       1.0000 0.27900  0.01430  0.69240  Biso   1.000  C
  C4       1.0000 0.15430  0.90870  0.75050  Biso   1.000  C
  H12      1.0000 0.12770  0.86240  0.79630  Biso   1.000  H
  Ni3      1.0000 0.86836  0.60083  0.03260  Biso   1.000  Ni
  N13      1.0000 0.07080  0.55905  0.14450  Biso   1.000  N
  N14      1.0000 0.15040  0.49113  0.10670  Biso   1.000  N
  N15      1.0000 0.28580  0.54694  0.28360  Biso   1.000  N
  N16      1.0000 0.41130  0.55670  0.38670  Biso   1.000  N
  H13      1.0000 0.38390  0.54830  0.46060  Biso   1.000  H
  H14      1.0000 0.44760  0.61000  0.38510  Biso   1.000  H
  N17      1.0000 0.38970  0.42847  0.18710  Biso   1.000  N
  H15      1.0000 0.47940  0.43150  0.23510  Biso   1.000  H
  N18      1.0000 0.34070  0.36261  0.09280  Biso   1.000  N
  H16      1.0000 0.32940  0.31230  0.13220  Biso   1.000  H
  H17      1.0000 0.41040  0.35470  0.04670  Biso   1.000  H
  C5       1.0000 0.27900  0.48570  0.19240  Biso   1.000  C
  C6       1.0000 0.15430  0.59130  0.25050  Biso   1.000  C
  H18      1.0000 0.12770  0.63760  0.29630  Biso   1.000  H
  Ni4      1.0000 0.13164  0.39917  0.96740  Biso   1.000  Ni
  N19      1.0000 0.92920  0.44095  0.85550  Biso   1.000  N
  N20      1.0000 0.84960  0.50887  0.89330  Biso   1.000  N
  N21      1.0000 0.71420  0.45306  0.71640  Biso   1.000  N
  N22      1.0000 0.58870  0.44330  0.61330  Biso   1.000  N
  H19      1.0000 0.61610  0.45170  0.53940  Biso   1.000  H
  H20      1.0000 0.55240  0.39000  0.61490  Biso   1.000  H
  N23      1.0000 0.61030  0.57153  0.81290  Biso   1.000  N
  H21      1.0000 0.52060  0.56850  0.76490  Biso   1.000  H
  N24      1.0000 0.65930  0.63739  0.90720  Biso   1.000  N
  H22      1.0000 0.67060  0.68770  0.86780  Biso   1.000  H
  H23      1.0000 0.58960  0.64530  0.95330  Biso   1.000  H
  C7       1.0000 0.72100  0.51430  0.80760  Biso   1.000  C
  C8       1.0000 0.84570  0.40870  0.74950  Biso   1.000  C
  H24      1.0000 0.87230  0.36240  0.70370  Biso   1.000  H
