data_image0
_cell_length_a       21.4322
_cell_length_b       23.054
_cell_length_c       12.1309
_cell_angle_alpha    90
_cell_angle_beta     119.618
_cell_angle_gamma    90

_symmetry_space_group_name_H-M    "P 1"
_symmetry_int_tables_number       1

loop_
  _symmetry_equiv_pos_as_xyz
  'x, y, z'

loop_
  _atom_site_label
  _atom_site_occupancy
  _atom_site_fract_x
  _atom_site_fract_y
  _atom_site_fract_z
  _atom_site_thermal_displace_type
  _atom_site_B_iso_or_equiv
  _atom_site_type_symbol
  Ni1      1.0000 0.28404  0.15886  0.27570  Biso   1.000  Ni
  N1       1.0000 0.28290  0.24780  0.27690  Biso   1.000  N
  N2       1.0000 0.27270  0.28240  0.17790  Biso   1.000  N
  N3       1.0000 0.28720  0.33660  0.33330  Biso   1.000  N
  N4       1.0000 0.29370  0.38490  0.41050  Biso   1.000  N
  H1       1.0000 0.28770  0.37320  0.47460  Biso   1.000  H
  H2       1.0000 0.26000  0.41080  0.36410  Biso   1.000  H
  N5       1.0000 0.34580  0.15530  0.18730  Biso   1.000  N
  N6       1.0000 0.33340  0.18770  0.08670  Biso   1.000  N
  N7       1.0000 0.42200  0.12940  0.12890  Biso   1.000  N
  N8       1.0000 0.47830  0.10200  0.12060  Biso   1.000  N
  H3       1.0000 0.46670  0.06510  0.09810  Biso   1.000  H
  H4       1.0000 0.51790  0.10350  0.19620  Biso   1.000  H
  N9       1.0000 0.18950  0.15540  0.10250  Biso   1.000  N
  N10      1.0000 0.17740  0.19040  0.00230  Biso   1.000  N
  N11      1.0000 0.08580  0.13500  0.94950  Biso   1.000  N
  N12      1.0000 0.01790  0.10630  0.87740  Biso   1.000  N
  H5       1.0000 0.02240  0.07790  0.83200  Biso   1.000  H
  H6       1.0000 0.98530  0.13170  0.82550  Biso   1.000  H
  O1       1.0000 0.37640  0.15590  0.44940  Biso   1.000  O
  H7       1.0000 0.34190  0.17840  0.43580  Biso   1.000  H
  H8       1.0000 0.41710  0.17040  0.50080  Biso   1.000  H
  C1       1.0000 0.27690  0.33590  0.21590  Biso   1.000  C
  H9       1.0000 0.27320  0.36860  0.16810  Biso   1.000  H
  C2       1.0000 0.29140  0.28170  0.36900  Biso   1.000  C
  H10      1.0000 0.29930  0.26930  0.44780  Biso   1.000  H
  C3       1.0000 0.37930  0.17140  0.05110  Biso   1.000  C
  H11      1.0000 0.38200  0.18650  0.98250  Biso   1.000  H
  C4       1.0000 0.39970  0.12120  0.21380  Biso   1.000  C
  H12      1.0000 0.41980  0.09520  0.28110  Biso   1.000  H
  C5       1.0000 0.11440  0.17730  0.91020  Biso   1.000  C
  H13      1.0000 0.09230  0.19400  0.83000  Biso   1.000  H
  C6       1.0000 0.13320  0.12250  0.06640  Biso   1.000  C
  H14      1.0000 0.12780  0.09450  0.11620  Biso   1.000  H
  Ni2      1.0000 0.21596  0.34114  0.72430  Biso   1.000  Ni
  N13      1.0000 0.21710  0.25220  0.72310  Biso   1.000  N
  N14      1.0000 0.22730  0.21760  0.82210  Biso   1.000  N
  N15      1.0000 0.21280  0.16340  0.66670  Biso   1.000  N
  N16      1.0000 0.20630  0.11510  0.58950  Biso   1.000  N
  H15      1.0000 0.21230  0.12680  0.52540  Biso   1.000  H
  H16      1.0000 0.24000  0.08920  0.63590  Biso   1.000  H
  N17      1.0000 0.15420  0.34470  0.81270  Biso   1.000  N
  N18      1.0000 0.16660  0.31230  0.91330  Biso   1.000  N
  N19      1.0000 0.07800  0.37060  0.87110  Biso   1.000  N
  N20      1.0000 0.02170  0.39800  0.87940  Biso   1.000  N
  H17      1.0000 0.03330  0.43490  0.90190  Biso   1.000  H
  H18      1.0000 0.98210  0.39650  0.80380  Biso   1.000  H
  N21      1.0000 0.31050  0.34460  0.89750  Biso   1.000  N
  N22      1.0000 0.32260  0.30960  0.99770  Biso   1.000  N
  N23      1.0000 0.41420  0.36500  0.05050  Biso   1.000  N
  N24      1.0000 0.48210  0.39370  0.12260  Biso   1.000  N
  H19      1.0000 0.47760  0.42210  0.16800  Biso   1.000  H
  H20      1.0000 0.51470  0.36830  0.17450  Biso   1.000  H
  O2       1.0000 0.12360  0.34410  0.55060  Biso   1.000  O
  H21      1.0000 0.15810  0.32160  0.56420  Biso   1.000  H
  H22      1.0000 0.08290  0.32960  0.49920  Biso   1.000  H
  C7       1.0000 0.22310  0.16410  0.78410  Biso   1.000  C
  H23      1.0000 0.22680  0.13140  0.83190  Biso   1.000  H
  C8       1.0000 0.20860  0.21830  0.63100  Biso   1.000  C
  H24      1.0000 0.20070  0.23070  0.55220  Biso   1.000  H
  C9       1.0000 0.12070  0.32860  0.94890  Biso   1.000  C
  H25      1.0000 0.11800  0.31350  0.01750  Biso   1.000  H
  C10      1.0000 0.10030  0.37880  0.78620  Biso   1.000  C
  H26      1.0000 0.08020  0.40480  0.71890  Biso   1.000  H
  C11      1.0000 0.38560  0.32270  0.08980  Biso   1.000  C
  H27      1.0000 0.40770  0.30600  0.17000  Biso   1.000  H
  C12      1.0000 0.36680  0.37750  0.93360  Biso   1.000  C
  H28      1.0000 0.37220  0.40550  0.88380  Biso   1.000  H
  Ni3      1.0000 0.25000  0.25000  0.00000  Biso   1.000  Ni
  Ni4      1.0000 0.78404  0.65886  0.27570  Biso   1.000  Ni
  N25      1.0000 0.78290  0.74780  0.27690  Biso   1.000  N
  N26      1.0000 0.77270  0.78240  0.17790  Biso   1.000  N
  N27      1.0000 0.78720  0.83660  0.33330  Biso   1.000  N
  N28      1.0000 0.79370  0.88490  0.41050  Biso   1.000  N
  H29      1.0000 0.78770  0.87320  0.47460  Biso   1.000  H
  H30      1.0000 0.76000  0.91080  0.36410  Biso   1.000  H
  N29      1.0000 0.84580  0.65530  0.18730  Biso   1.000  N
  N30      1.0000 0.83340  0.68770  0.08670  Biso   1.000  N
  N31      1.0000 0.92200  0.62940  0.12890  Biso   1.000  N
  N32      1.0000 0.97830  0.60200  0.12060  Biso   1.000  N
  H31      1.0000 0.96670  0.56510  0.09810  Biso   1.000  H
  H32      1.0000 0.01790  0.60350  0.19620  Biso   1.000  H
  N33      1.0000 0.68950  0.65540  0.10250  Biso   1.000  N
  N34      1.0000 0.67740  0.69040  0.00230  Biso   1.000  N
  N35      1.0000 0.58580  0.63500  0.94950  Biso   1.000  N
  N36      1.0000 0.51790  0.60630  0.87740  Biso   1.000  N
  H33      1.0000 0.52240  0.57790  0.83200  Biso   1.000  H
  H34      1.0000 0.48530  0.63170  0.82550  Biso   1.000  H
  O3       1.0000 0.87640  0.65590  0.44940  Biso   1.000  O
  H35      1.0000 0.84190  0.67840  0.43580  Biso   1.000  H
  H36      1.0000 0.91710  0.67040  0.50080  Biso   1.000  H
  C13      1.0000 0.77690  0.83590  0.21590  Biso   1.000  C
  H37      1.0000 0.77320  0.86860  0.16810  Biso   1.000  H
  C14      1.0000 0.79140  0.78170  0.36900  Biso   1.000  C
  H38      1.0000 0.79930  0.76930  0.44780  Biso   1.000  H
  C15      1.0000 0.87930  0.67140  0.05110  Biso   1.000  C
  H39      1.0000 0.88200  0.68650  0.98250  Biso   1.000  H
  C16      1.0000 0.89970  0.62120  0.21380  Biso   1.000  C
  H40      1.0000 0.91980  0.59520  0.28110  Biso   1.000  H
  C17      1.0000 0.61440  0.67730  0.91020  Biso   1.000  C
  H41      1.0000 0.59230  0.69400  0.83000  Biso   1.000  H
  C18      1.0000 0.63320  0.62250  0.06640  Biso   1.000  C
  H42      1.0000 0.62780  0.59450  0.11620  Biso   1.000  H
  Ni5      1.0000 0.71596  0.84114  0.72430  Biso   1.000  Ni
  N37      1.0000 0.71710  0.75220  0.72310  Biso   1.000  N
  N38      1.0000 0.72730  0.71760  0.82210  Biso   1.000  N
  N39      1.0000 0.71280  0.66340  0.66670  Biso   1.000  N
  N40      1.0000 0.70630  0.61510  0.58950  Biso   1.000  N
  H43      1.0000 0.71230  0.62680  0.52540  Biso   1.000  H
  H44      1.0000 0.74000  0.58920  0.63590  Biso   1.000  H
  N41      1.0000 0.65420  0.84470  0.81270  Biso   1.000  N
  N42      1.0000 0.66660  0.81230  0.91330  Biso   1.000  N
  N43      1.0000 0.57800  0.87060  0.87110  Biso   1.000  N
  N44      1.0000 0.52170  0.89800  0.87940  Biso   1.000  N
  H45      1.0000 0.53330  0.93490  0.90190  Biso   1.000  H
  H46      1.0000 0.48210  0.89650  0.80380  Biso   1.000  H
  N45      1.0000 0.81050  0.84460  0.89750  Biso   1.000  N
  N46      1.0000 0.82260  0.80960  0.99770  Biso   1.000  N
  N47      1.0000 0.91420  0.86500  0.05050  Biso   1.000  N
  N48      1.0000 0.98210  0.89370  0.12260  Biso   1.000  N
  H47      1.0000 0.97760  0.92210  0.16800  Biso   1.000  H
  H48      1.0000 0.01470  0.86830  0.17450  Biso   1.000  H
  O4       1.0000 0.62360  0.84410  0.55060  Biso   1.000  O
  H49      1.0000 0.65810  0.82160  0.56420  Biso   1.000  H
  H50      1.0000 0.58290  0.82960  0.49920  Biso   1.000  H
  C19      1.0000 0.72310  0.66410  0.78410  Biso   1.000  C
  H51      1.0000 0.72680  0.63140  0.83190  Biso   1.000  H
  C20      1.0000 0.70860  0.71830  0.63100  Biso   1.000  C
  H52      1.0000 0.70070  0.73070  0.55220  Biso   1.000  H
  C21      1.0000 0.62070  0.82860  0.94890  Biso   1.000  C
  H53      1.0000 0.61800  0.81350  0.01750  Biso   1.000  H
  C22      1.0000 0.60030  0.87880  0.78620  Biso   1.000  C
  H54      1.0000 0.58020  0.90480  0.71890  Biso   1.000  H
  C23      1.0000 0.88560  0.82270  0.08980  Biso   1.000  C
  H55      1.0000 0.90770  0.80600  0.17000  Biso   1.000  H
  C24      1.0000 0.86680  0.87750  0.93360  Biso   1.000  C
  H56      1.0000 0.87220  0.90550  0.88380  Biso   1.000  H
  Ni6      1.0000 0.75000  0.75000  0.00000  Biso   1.000  Ni
  Ni7      1.0000 0.71596  0.15886  0.72430  Biso   1.000  Ni
  N49      1.0000 0.71710  0.24780  0.72310  Biso   1.000  N
  N50      1.0000 0.72730  0.28240  0.82210  Biso   1.000  N
  N51      1.0000 0.71280  0.33660  0.66670  Biso   1.000  N
  N52      1.0000 0.70630  0.38490  0.58950  Biso   1.000  N
  H57      1.0000 0.71230  0.37320  0.52540  Biso   1.000  H
  H58      1.0000 0.74000  0.41080  0.63590  Biso   1.000  H
  N53      1.0000 0.65420  0.15530  0.81270  Biso   1.000  N
  N54      1.0000 0.66660  0.18770  0.91330  Biso   1.000  N
  N55      1.0000 0.57800  0.12940  0.87110  Biso   1.000  N
  N56      1.0000 0.52170  0.10200  0.87940  Biso   1.000  N
  H59      1.0000 0.53330  0.06510  0.90190  Biso   1.000  H
  H60      1.0000 0.48210  0.10350  0.80380  Biso   1.000  H
  N57      1.0000 0.81050  0.15540  0.89750  Biso   1.000  N
  N58      1.0000 0.82260  0.19040  0.99770  Biso   1.000  N
  N59      1.0000 0.91420  0.13500  0.05050  Biso   1.000  N
  N60      1.0000 0.98210  0.10630  0.12260  Biso   1.000  N
  H61      1.0000 0.97760  0.07790  0.16800  Biso   1.000  H
  H62      1.0000 0.01470  0.13170  0.17450  Biso   1.000  H
  O5       1.0000 0.62360  0.15590  0.55060  Biso   1.000  O
  H63      1.0000 0.65810  0.17840  0.56420  Biso   1.000  H
  H64      1.0000 0.58290  0.17040  0.49920  Biso   1.000  H
  C25      1.0000 0.72310  0.33590  0.78410  Biso   1.000  C
  H65      1.0000 0.72680  0.36860  0.83190  Biso   1.000  H
  C26      1.0000 0.70860  0.28170  0.63100  Biso   1.000  C
  H66      1.0000 0.70070  0.26930  0.55220  Biso   1.000  H
  C27      1.0000 0.62070  0.17140  0.94890  Biso   1.000  C
  H67      1.0000 0.61800  0.18650  0.01750  Biso   1.000  H
  C28      1.0000 0.60030  0.12120  0.78620  Biso   1.000  C
  H68      1.0000 0.58020  0.09520  0.71890  Biso   1.000  H
  C29      1.0000 0.88560  0.17730  0.08980  Biso   1.000  C
  H69      1.0000 0.90770  0.19400  0.17000  Biso   1.000  H
  C30      1.0000 0.86680  0.12250  0.93360  Biso   1.000  C
  H70      1.0000 0.87220  0.09450  0.88380  Biso   1.000  H
  Ni8      1.0000 0.78404  0.34114  0.27570  Biso   1.000  Ni
  N61      1.0000 0.78290  0.25220  0.27690  Biso   1.000  N
  N62      1.0000 0.77270  0.21760  0.17790  Biso   1.000  N
  N63      1.0000 0.78720  0.16340  0.33330  Biso   1.000  N
  N64      1.0000 0.79370  0.11510  0.41050  Biso   1.000  N
  H71      1.0000 0.78770  0.12680  0.47460  Biso   1.000  H
  H72      1.0000 0.76000  0.08920  0.36410  Biso   1.000  H
  N65      1.0000 0.84580  0.34470  0.18730  Biso   1.000  N
  N66      1.0000 0.83340  0.31230  0.08670  Biso   1.000  N
  N67      1.0000 0.92200  0.37060  0.12890  Biso   1.000  N
  N68      1.0000 0.97830  0.39800  0.12060  Biso   1.000  N
  H73      1.0000 0.96670  0.43490  0.09810  Biso   1.000  H
  H74      1.0000 0.01790  0.39650  0.19620  Biso   1.000  H
  N69      1.0000 0.68950  0.34460  0.10250  Biso   1.000  N
  N70      1.0000 0.67740  0.30960  0.00230  Biso   1.000  N
  N71      1.0000 0.58580  0.36500  0.94950  Biso   1.000  N
  N72      1.0000 0.51790  0.39370  0.87740  Biso   1.000  N
  H75      1.0000 0.52240  0.42210  0.83200  Biso   1.000  H
  H76      1.0000 0.48530  0.36830  0.82550  Biso   1.000  H
  O6       1.0000 0.87640  0.34410  0.44940  Biso   1.000  O
  H77      1.0000 0.84190  0.32160  0.43580  Biso   1.000  H
  H78      1.0000 0.91710  0.32960  0.50080  Biso   1.000  H
  C31      1.0000 0.77690  0.16410  0.21590  Biso   1.000  C
  H79      1.0000 0.77320  0.13140  0.16810  Biso   1.000  H
  C32      1.0000 0.79140  0.21830  0.36900  Biso   1.000  C
  H80      1.0000 0.79930  0.23070  0.44780  Biso   1.000  H
  C33      1.0000 0.87930  0.32860  0.05110  Biso   1.000  C
  H81      1.0000 0.88200  0.31350  0.98250  Biso   1.000  H
  C34      1.0000 0.89970  0.37880  0.21380  Biso   1.000  C
  H82      1.0000 0.91980  0.40480  0.28110  Biso   1.000  H
  C35      1.0000 0.61440  0.32270  0.91020  Biso   1.000  C
  H83      1.0000 0.59230  0.30600  0.83000  Biso   1.000  H
  C36      1.0000 0.63320  0.37750  0.06640  Biso   1.000  C
  H84      1.0000 0.62780  0.40550  0.11620  Biso   1.000  H
  Ni9      1.0000 0.75000  0.25000  0.00000  Biso   1.000  Ni
  Ni10     1.0000 0.21596  0.65886  0.72430  Biso   1.000  Ni
  N73      1.0000 0.21710  0.74780  0.72310  Biso   1.000  N
  N74      1.0000 0.22730  0.78240  0.82210  Biso   1.000  N
  N75      1.0000 0.21280  0.83660  0.66670  Biso   1.000  N
  N76      1.0000 0.20630  0.88490  0.58950  Biso   1.000  N
  H85      1.0000 0.21230  0.87320  0.52540  Biso   1.000  H
  H86      1.0000 0.24000  0.91080  0.63590  Biso   1.000  H
  N77      1.0000 0.15420  0.65530  0.81270  Biso   1.000  N
  N78      1.0000 0.16660  0.68770  0.91330  Biso   1.000  N
  N79      1.0000 0.07800  0.62940  0.87110  Biso   1.000  N
  N80      1.0000 0.02170  0.60200  0.87940  Biso   1.000  N
  H87      1.0000 0.03330  0.56510  0.90190  Biso   1.000  H
  H88      1.0000 0.98210  0.60350  0.80380  Biso   1.000  H
  N81      1.0000 0.31050  0.65540  0.89750  Biso   1.000  N
  N82      1.0000 0.32260  0.69040  0.99770  Biso   1.000  N
  N83      1.0000 0.41420  0.63500  0.05050  Biso   1.000  N
  N84      1.0000 0.48210  0.60630  0.12260  Biso   1.000  N
  H89      1.0000 0.47760  0.57790  0.16800  Biso   1.000  H
  H90      1.0000 0.51470  0.63170  0.17450  Biso   1.000  H
  O7       1.0000 0.12360  0.65590  0.55060  Biso   1.000  O
  H91      1.0000 0.15810  0.67840  0.56420  Biso   1.000  H
  H92      1.0000 0.08290  0.67040  0.49920  Biso   1.000  H
  C37      1.0000 0.22310  0.83590  0.78410  Biso   1.000  C
  H93      1.0000 0.22680  0.86860  0.83190  Biso   1.000  H
  C38      1.0000 0.20860  0.78170  0.63100  Biso   1.000  C
  H94      1.0000 0.20070  0.76930  0.55220  Biso   1.000  H
  C39      1.0000 0.12070  0.67140  0.94890  Biso   1.000  C
  H95      1.0000 0.11800  0.68650  0.01750  Biso   1.000  H
  C40      1.0000 0.10030  0.62120  0.78620  Biso   1.000  C
  H96      1.0000 0.08020  0.59520  0.71890  Biso   1.000  H
  C41      1.0000 0.38560  0.67730  0.08980  Biso   1.000  C
  H97      1.0000 0.40770  0.69400  0.17000  Biso   1.000  H
  C42      1.0000 0.36680  0.62250  0.93360  Biso   1.000  C
  H98      1.0000 0.37220  0.59450  0.88380  Biso   1.000  H
  Ni11     1.0000 0.28404  0.84114  0.27570  Biso   1.000  Ni
  N85      1.0000 0.28290  0.75220  0.27690  Biso   1.000  N
  N86      1.0000 0.27270  0.71760  0.17790  Biso   1.000  N
  N87      1.0000 0.28720  0.66340  0.33330  Biso   1.000  N
  N88      1.0000 0.29370  0.61510  0.41050  Biso   1.000  N
  H99      1.0000 0.28770  0.62680  0.47460  Biso   1.000  H
  H100     1.0000 0.26000  0.58920  0.36410  Biso   1.000  H
  N89      1.0000 0.34580  0.84470  0.18730  Biso   1.000  N
  N90      1.0000 0.33340  0.81230  0.08670  Biso   1.000  N
  N91      1.0000 0.42200  0.87060  0.12890  Biso   1.000  N
  N92      1.0000 0.47830  0.89800  0.12060  Biso   1.000  N
  H101     1.0000 0.46670  0.93490  0.09810  Biso   1.000  H
  H102     1.0000 0.51790  0.89650  0.19620  Biso   1.000  H
  N93      1.0000 0.18950  0.84460  0.10250  Biso   1.000  N
  N94      1.0000 0.17740  0.80960  0.00230  Biso   1.000  N
  N95      1.0000 0.08580  0.86500  0.94950  Biso   1.000  N
  N96      1.0000 0.01790  0.89370  0.87740  Biso   1.000  N
  H103     1.0000 0.02240  0.92210  0.83200  Biso   1.000  H
  H104     1.0000 0.98530  0.86830  0.82550  Biso   1.000  H
  O8       1.0000 0.37640  0.84410  0.44940  Biso   1.000  O
  H105     1.0000 0.34190  0.82160  0.43580  Biso   1.000  H
  H106     1.0000 0.41710  0.82960  0.50080  Biso   1.000  H
  C43      1.0000 0.27690  0.66410  0.21590  Biso   1.000  C
  H107     1.0000 0.27320  0.63140  0.16810  Biso   1.000  H
  C44      1.0000 0.29140  0.71830  0.36900  Biso   1.000  C
  H108     1.0000 0.29930  0.73070  0.44780  Biso   1.000  H
  C45      1.0000 0.37930  0.82860  0.05110  Biso   1.000  C
  H109     1.0000 0.38200  0.81350  0.98250  Biso   1.000  H
  C46      1.0000 0.39970  0.87880  0.21380  Biso   1.000  C
  H110     1.0000 0.41980  0.90480  0.28110  Biso   1.000  H
  C47      1.0000 0.11440  0.82270  0.91020  Biso   1.000  C
  H111     1.0000 0.09230  0.80600  0.83000  Biso   1.000  H
  C48      1.0000 0.13320  0.87750  0.06640  Biso   1.000  C
  H112     1.0000 0.12780  0.90550  0.11620  Biso   1.000  H
  Ni12     1.0000 0.25000  0.75000  0.00000  Biso   1.000  Ni
