data_image0
_cell_length_a       10.425
_cell_length_b       31.106
_cell_length_c       11.865
_cell_angle_alpha    90
_cell_angle_beta     115.066
_cell_angle_gamma    90

_symmetry_space_group_name_H-M    "P 1"
_symmetry_int_tables_number       1

loop_
  _symmetry_equiv_pos_as_xyz
  'x, y, z'

loop_
  _atom_site_label
  _atom_site_occupancy
  _atom_site_fract_x
  _atom_site_fract_y
  _atom_site_fract_z
  _atom_site_thermal_displace_type
  _atom_site_B_iso_or_equiv
  _atom_site_type_symbol
  C1       1.0000 0.16820  0.24453  0.73628  Biso   1.000  C
  H1       1.0000 0.10930  0.24960  0.78210  Biso   1.000  H
  H2       1.0000 0.23160  0.26960  0.75040  Biso   1.000  H
  C2       1.0000 0.34573  0.18981  0.68037  Biso   1.000  C
  H3       1.0000 0.41660  0.21260  0.69200  Biso   1.000  H
  H4       1.0000 0.39400  0.16170  0.69150  Biso   1.000  H
  C3       1.0000 0.13358  0.15587  0.73795  Biso   1.000  C
  H5       1.0000 0.17520  0.12670  0.75180  Biso   1.000  H
  H6       1.0000 0.07370  0.15810  0.78390  Biso   1.000  H
  C4       1.0000 0.15967  0.23402  0.52972  Biso   1.000  C
  H7       1.0000 0.09620  0.23610  0.43990  Biso   1.000  H
  H8       1.0000 0.23090  0.25720  0.54990  Biso   1.000  H
  C5       1.0000 0.12906  0.15833  0.52897  Biso   1.000  C
  H9       1.0000 0.17900  0.13040  0.54770  Biso   1.000  H
  H10      1.0000 0.06380  0.15850  0.43940  Biso   1.000  H
  C6       1.0000 0.97477  0.20467  0.57751  Biso   1.000  C
  H11      1.0000 0.92230  0.20820  0.62960  Biso   1.000  H
  H12      1.0000 0.90500  0.20570  0.48930  Biso   1.000  H
  C7       1.0000 0.64409  0.13807  0.23611  Biso   1.000  C
  H13      1.0000 0.57850  0.14750  0.27190  Biso   1.000  H
  H14      1.0000 0.71220  0.16170  0.24770  Biso   1.000  H
  C8       1.0000 0.59550  0.05101  0.25969  Biso   1.000  C
  H15      1.0000 0.63380  0.02170  0.28540  Biso   1.000  H
  H16      1.0000 0.52690  0.05690  0.29530  Biso   1.000  H
  C9       1.0000 0.82941  0.07783  0.21932  Biso   1.000  C
  H17      1.0000 0.90180  0.10000  0.23020  Biso   1.000  H
  H18      1.0000 0.87820  0.04980  0.24380  Biso   1.000  H
  C10      1.0000 0.45715  0.09495  0.07891  Biso   1.000  C
  H19      1.0000 0.39560  0.10220  0.12080  Biso   1.000  H
  H20      1.0000 0.39640  0.09300  0.98850  Biso   1.000  H
  C11      1.0000 0.65653  0.11803  0.04299  Biso   1.000  C
  H21      1.0000 0.72960  0.14060  0.06070  Biso   1.000  H
  H22      1.0000 0.60060  0.11670  0.95170  Biso   1.000  H
  C12      1.0000 0.61710  0.04285  0.06560  Biso   1.000  C
  H23      1.0000 0.56020  0.03950  0.97490  Biso   1.000  H
  H24      1.0000 0.66410  0.01500  0.09850  Biso   1.000  H
  N1       1.0000 0.07493  0.24116  0.60195  Biso   1.000  N
  N2       1.0000 0.23263  0.19254  0.55328  Biso   1.000  N
  N3       1.0000 0.04404  0.16205  0.60308  Biso   1.000  N
  N4       1.0000 0.56209  0.13025  0.10148  Biso   1.000  N
  N5       1.0000 0.52275  0.05301  0.12366  Biso   1.000  N
  N6       1.0000 0.72733  0.07614  0.08715  Biso   1.000  N
  P1       1.0000 0.27702  0.19586  0.79949  Biso   1.000  P
  P2       1.0000 0.74186  0.09040  0.32153  Biso   1.000  P
  Ag1      1.0000 0.43713  0.19417  0.01206  Biso   1.000  Ag
  Ag2      1.0000 0.88884  0.10260  0.53176  Biso   1.000  Ag
  C13      1.0000 0.66820  0.25547  0.23628  Biso   1.000  C
  H25      1.0000 0.60930  0.25040  0.28210  Biso   1.000  H
  H26      1.0000 0.73160  0.23040  0.25040  Biso   1.000  H
  C14      1.0000 0.84573  0.31019  0.18037  Biso   1.000  C
  H27      1.0000 0.91660  0.28740  0.19200  Biso   1.000  H
  H28      1.0000 0.89400  0.33830  0.19150  Biso   1.000  H
  C15      1.0000 0.63358  0.34413  0.23795  Biso   1.000  C
  H29      1.0000 0.67520  0.37330  0.25180  Biso   1.000  H
  H30      1.0000 0.57370  0.34190  0.28390  Biso   1.000  H
  C16      1.0000 0.65967  0.26598  0.02972  Biso   1.000  C
  H31      1.0000 0.59620  0.26390  0.93990  Biso   1.000  H
  H32      1.0000 0.73090  0.24280  0.04990  Biso   1.000  H
  C17      1.0000 0.62906  0.34167  0.02897  Biso   1.000  C
  H33      1.0000 0.67900  0.36960  0.04770  Biso   1.000  H
  H34      1.0000 0.56380  0.34150  0.93940  Biso   1.000  H
  C18      1.0000 0.47477  0.29533  0.07751  Biso   1.000  C
  H35      1.0000 0.42230  0.29180  0.12960  Biso   1.000  H
  H36      1.0000 0.40500  0.29430  0.98930  Biso   1.000  H
  C19      1.0000 0.14409  0.36193  0.73611  Biso   1.000  C
  H37      1.0000 0.07850  0.35250  0.77190  Biso   1.000  H
  H38      1.0000 0.21220  0.33830  0.74770  Biso   1.000  H
  C20      1.0000 0.09550  0.44899  0.75969  Biso   1.000  C
  H39      1.0000 0.13380  0.47830  0.78540  Biso   1.000  H
  H40      1.0000 0.02690  0.44310  0.79530  Biso   1.000  H
  C21      1.0000 0.32941  0.42217  0.71932  Biso   1.000  C
  H41      1.0000 0.40180  0.40000  0.73020  Biso   1.000  H
  H42      1.0000 0.37820  0.45020  0.74380  Biso   1.000  H
  C22      1.0000 0.95715  0.40505  0.57891  Biso   1.000  C
  H43      1.0000 0.89560  0.39780  0.62080  Biso   1.000  H
  H44      1.0000 0.89640  0.40700  0.48850  Biso   1.000  H
  C23      1.0000 0.15653  0.38197  0.54299  Biso   1.000  C
  H45      1.0000 0.22960  0.35940  0.56070  Biso   1.000  H
  H46      1.0000 0.10060  0.38330  0.45170  Biso   1.000  H
  C24      1.0000 0.11710  0.45715  0.56560  Biso   1.000  C
  H47      1.0000 0.06020  0.46050  0.47490  Biso   1.000  H
  H48      1.0000 0.16410  0.48500  0.59850  Biso   1.000  H
  N7       1.0000 0.57493  0.25884  0.10195  Biso   1.000  N
  N8       1.0000 0.73263  0.30746  0.05328  Biso   1.000  N
  N9       1.0000 0.54404  0.33795  0.10308  Biso   1.000  N
  N10      1.0000 0.06209  0.36975  0.60148  Biso   1.000  N
  N11      1.0000 0.02275  0.44699  0.62366  Biso   1.000  N
  N12      1.0000 0.22733  0.42386  0.58715  Biso   1.000  N
  P3       1.0000 0.77702  0.30414  0.29949  Biso   1.000  P
  P4       1.0000 0.24186  0.40960  0.82153  Biso   1.000  P
  Ag3      1.0000 0.93713  0.30583  0.51206  Biso   1.000  Ag
  Ag4      1.0000 0.38884  0.39740  0.03176  Biso   1.000  Ag
  C25      1.0000 0.33180  0.74453  0.76372  Biso   1.000  C
  H49      1.0000 0.39070  0.74960  0.71790  Biso   1.000  H
  H50      1.0000 0.26840  0.76960  0.74960  Biso   1.000  H
  C26      1.0000 0.15427  0.68981  0.81963  Biso   1.000  C
  H51      1.0000 0.08340  0.71260  0.80800  Biso   1.000  H
  H52      1.0000 0.10600  0.66170  0.80850  Biso   1.000  H
  C27      1.0000 0.36642  0.65587  0.76205  Biso   1.000  C
  H53      1.0000 0.32480  0.62670  0.74820  Biso   1.000  H
  H54      1.0000 0.42630  0.65810  0.71610  Biso   1.000  H
  C28      1.0000 0.34033  0.73402  0.97028  Biso   1.000  C
  H55      1.0000 0.40380  0.73610  0.06010  Biso   1.000  H
  H56      1.0000 0.26910  0.75720  0.95010  Biso   1.000  H
  C29      1.0000 0.37094  0.65833  0.97103  Biso   1.000  C
  H57      1.0000 0.32100  0.63040  0.95230  Biso   1.000  H
  H58      1.0000 0.43620  0.65850  0.06060  Biso   1.000  H
  C30      1.0000 0.52523  0.70467  0.92249  Biso   1.000  C
  H59      1.0000 0.57770  0.70820  0.87040  Biso   1.000  H
  H60      1.0000 0.59500  0.70570  0.01070  Biso   1.000  H
  C31      1.0000 0.85591  0.63807  0.26389  Biso   1.000  C
  H61      1.0000 0.92150  0.64750  0.22810  Biso   1.000  H
  H62      1.0000 0.78780  0.66170  0.25230  Biso   1.000  H
  C32      1.0000 0.90450  0.55101  0.24031  Biso   1.000  C
  H63      1.0000 0.86620  0.52170  0.21460  Biso   1.000  H
  H64      1.0000 0.97310  0.55690  0.20470  Biso   1.000  H
  C33      1.0000 0.67059  0.57783  0.28068  Biso   1.000  C
  H65      1.0000 0.59820  0.60000  0.26980  Biso   1.000  H
  H66      1.0000 0.62180  0.54980  0.25620  Biso   1.000  H
  C34      1.0000 0.04285  0.59495  0.42109  Biso   1.000  C
  H67      1.0000 0.10440  0.60220  0.37920  Biso   1.000  H
  H68      1.0000 0.10360  0.59300  0.51150  Biso   1.000  H
  C35      1.0000 0.84347  0.61803  0.45701  Biso   1.000  C
  H69      1.0000 0.77040  0.64060  0.43930  Biso   1.000  H
  H70      1.0000 0.89940  0.61670  0.54830  Biso   1.000  H
  C36      1.0000 0.88290  0.54285  0.43440  Biso   1.000  C
  H71      1.0000 0.93980  0.53950  0.52510  Biso   1.000  H
  H72      1.0000 0.83590  0.51500  0.40150  Biso   1.000  H
  N13      1.0000 0.42507  0.74116  0.89805  Biso   1.000  N
  N14      1.0000 0.26737  0.69254  0.94672  Biso   1.000  N
  N15      1.0000 0.45596  0.66205  0.89692  Biso   1.000  N
  N16      1.0000 0.93791  0.63025  0.39852  Biso   1.000  N
  N17      1.0000 0.97725  0.55301  0.37634  Biso   1.000  N
  N18      1.0000 0.77267  0.57614  0.41285  Biso   1.000  N
  P5       1.0000 0.22298  0.69586  0.70051  Biso   1.000  P
  P6       1.0000 0.75814  0.59040  0.17847  Biso   1.000  P
  Ag5      1.0000 0.06287  0.69417  0.48794  Biso   1.000  Ag
  Ag6      1.0000 0.61116  0.60260  0.96824  Biso   1.000  Ag
  C37      1.0000 0.83180  0.75547  0.26372  Biso   1.000  C
  H73      1.0000 0.89070  0.75040  0.21790  Biso   1.000  H
  H74      1.0000 0.76840  0.73040  0.24960  Biso   1.000  H
  C38      1.0000 0.65427  0.81019  0.31963  Biso   1.000  C
  H75      1.0000 0.58340  0.78740  0.30800  Biso   1.000  H
  H76      1.0000 0.60600  0.83830  0.30850  Biso   1.000  H
  C39      1.0000 0.86642  0.84413  0.26205  Biso   1.000  C
  H77      1.0000 0.82480  0.87330  0.24820  Biso   1.000  H
  H78      1.0000 0.92630  0.84190  0.21610  Biso   1.000  H
  C40      1.0000 0.84033  0.76598  0.47028  Biso   1.000  C
  H79      1.0000 0.90380  0.76390  0.56010  Biso   1.000  H
  H80      1.0000 0.76910  0.74280  0.45010  Biso   1.000  H
  C41      1.0000 0.87094  0.84167  0.47103  Biso   1.000  C
  H81      1.0000 0.82100  0.86960  0.45230  Biso   1.000  H
  H82      1.0000 0.93620  0.84150  0.56060  Biso   1.000  H
  C42      1.0000 0.02523  0.79533  0.42249  Biso   1.000  C
  H83      1.0000 0.07770  0.79180  0.37040  Biso   1.000  H
  H84      1.0000 0.09500  0.79430  0.51070  Biso   1.000  H
  C43      1.0000 0.35591  0.86193  0.76389  Biso   1.000  C
  H85      1.0000 0.42150  0.85250  0.72810  Biso   1.000  H
  H86      1.0000 0.28780  0.83830  0.75230  Biso   1.000  H
  C44      1.0000 0.40450  0.94899  0.74031  Biso   1.000  C
  H87      1.0000 0.36620  0.97830  0.71460  Biso   1.000  H
  H88      1.0000 0.47310  0.94310  0.70470  Biso   1.000  H
  C45      1.0000 0.17059  0.92217  0.78068  Biso   1.000  C
  H89      1.0000 0.09820  0.90000  0.76980  Biso   1.000  H
  H90      1.0000 0.12180  0.95020  0.75620  Biso   1.000  H
  C46      1.0000 0.54285  0.90505  0.92109  Biso   1.000  C
  H91      1.0000 0.60440  0.89780  0.87920  Biso   1.000  H
  H92      1.0000 0.60360  0.90700  0.01150  Biso   1.000  H
  C47      1.0000 0.34347  0.88197  0.95701  Biso   1.000  C
  H93      1.0000 0.27040  0.85940  0.93930  Biso   1.000  H
  H94      1.0000 0.39940  0.88330  0.04830  Biso   1.000  H
  C48      1.0000 0.38290  0.95715  0.93440  Biso   1.000  C
  H95      1.0000 0.43980  0.96050  0.02510  Biso   1.000  H
  H96      1.0000 0.33590  0.98500  0.90150  Biso   1.000  H
  N19      1.0000 0.92507  0.75884  0.39805  Biso   1.000  N
  N20      1.0000 0.76737  0.80746  0.44672  Biso   1.000  N
  N21      1.0000 0.95596  0.83795  0.39692  Biso   1.000  N
  N22      1.0000 0.43791  0.86975  0.89852  Biso   1.000  N
  N23      1.0000 0.47725  0.94699  0.87634  Biso   1.000  N
  N24      1.0000 0.27267  0.92386  0.91285  Biso   1.000  N
  P7       1.0000 0.72298  0.80414  0.20051  Biso   1.000  P
  P8       1.0000 0.25814  0.90960  0.67847  Biso   1.000  P
  Ag7      1.0000 0.56287  0.80583  0.98794  Biso   1.000  Ag
  Ag8      1.0000 0.11116  0.89740  0.46824  Biso   1.000  Ag
