data_image0
_cell_length_a       9.969
_cell_length_b       13.911
_cell_length_c       14.547
_cell_angle_alpha    79.98
_cell_angle_beta     72.3
_cell_angle_gamma    89

_symmetry_space_group_name_H-M    "P 1"
_symmetry_int_tables_number       1

loop_
  _symmetry_equiv_pos_as_xyz
  'x, y, z'

loop_
  _atom_site_label
  _atom_site_occupancy
  _atom_site_fract_x
  _atom_site_fract_y
  _atom_site_fract_z
  _atom_site_thermal_displace_type
  _atom_site_B_iso_or_equiv
  _atom_site_type_symbol
  U1       1.0000 0.47055  0.85951  0.02693  Biso   1.000  U
  O1       1.0000 0.28260  0.81460  0.17770  Biso   1.000  O
  O2       1.0000 0.40840  0.00440  0.08660  Biso   1.000  O
  O3       1.0000 0.64080  0.80020  0.88890  Biso   1.000  O
  O4       1.0000 0.35980  0.70900  0.28210  Biso   1.000  O
  N1       1.0000 0.07430  0.74630  0.62170  Biso   1.000  N
  C1       1.0000 0.66730  0.72790  0.84860  Biso   1.000  C
  C2       1.0000 0.25870  0.75720  0.25470  Biso   1.000  C
  C3       1.0000 0.96650  0.73900  0.49740  Biso   1.000  C
  C4       1.0000 0.11330  0.74780  0.33100  Biso   1.000  C
  C5       1.0000 0.10340  0.74460  0.42880  Biso   1.000  C
  H1       1.0000 0.18360  0.74600  0.44860  Biso   1.000  H
  C6       1.0000 0.98880  0.74650  0.20260  Biso   1.000  C
  H2       1.0000 0.07310  0.75400  0.15160  Biso   1.000  H
  C7       1.0000 0.80100  0.73420  0.77590  Biso   1.000  C
  C8       1.0000 0.06690  0.74640  0.71940  Biso   1.000  C
  C9       1.0000 0.94180  0.74340  0.79390  Biso   1.000  C
  C10      1.0000 0.99170  0.74480  0.30050  Biso   1.000  C
  N2       1.0000 0.84680  0.73350  0.47420  Biso   1.000  N
  C11      1.0000 0.94230  0.74850  0.88980  Biso   1.000  C
  H3       1.0000 0.85760  0.74880  0.93960  Biso   1.000  H
  C12      1.0000 0.95220  0.73930  0.60210  Biso   1.000  C
  C13      1.0000 0.86680  0.73740  0.18220  Biso   1.000  C
  H4       1.0000 0.86810  0.73730  0.11800  Biso   1.000  H
  C14      1.0000 0.86260  0.73410  0.37540  Biso   1.000  C
  C15      1.0000 0.74120  0.72830  0.25570  Biso   1.000  C
  H5       1.0000 0.65760  0.72410  0.24050  Biso   1.000  H
  C16      1.0000 0.82590  0.73290  0.67450  Biso   1.000  C
  H6       1.0000 0.74620  0.72700  0.65510  Biso   1.000  H
  O5       1.0000 0.62940  0.64660  0.87840  Biso   1.000  O
  C17      1.0000 0.73630  0.72530  0.35220  Biso   1.000  C
  H7       1.0000 0.65030  0.71750  0.40150  Biso   1.000  H
  C18      1.0000 0.07010  0.75300  0.91000  Biso   1.000  C
  H8       1.0000 0.07210  0.75680  0.97270  Biso   1.000  H
  C19      1.0000 0.18810  0.75270  0.74110  Biso   1.000  C
  H9       1.0000 0.27150  0.75820  0.68940  Biso   1.000  H
  C20      1.0000 0.19870  0.75170  0.83100  Biso   1.000  C
  H10      1.0000 0.28600  0.75020  0.84200  Biso   1.000  H
  U2       1.0000 0.52945  0.14049  0.97307  Biso   1.000  U
  O6       1.0000 0.71740  0.18540  0.82230  Biso   1.000  O
  O7       1.0000 0.59160  0.99560  0.91340  Biso   1.000  O
  O8       1.0000 0.35920  0.19980  0.11110  Biso   1.000  O
  O9       1.0000 0.64020  0.29100  0.71790  Biso   1.000  O
  N3       1.0000 0.92570  0.25370  0.37830  Biso   1.000  N
  C21      1.0000 0.33270  0.27210  0.15140  Biso   1.000  C
  C22      1.0000 0.74130  0.24280  0.74530  Biso   1.000  C
  C23      1.0000 0.03350  0.26100  0.50260  Biso   1.000  C
  C24      1.0000 0.88670  0.25220  0.66900  Biso   1.000  C
  C25      1.0000 0.89660  0.25540  0.57120  Biso   1.000  C
  H11      1.0000 0.81640  0.25400  0.55140  Biso   1.000  H
  C26      1.0000 0.01120  0.25350  0.79740  Biso   1.000  C
  H12      1.0000 0.92690  0.24600  0.84840  Biso   1.000  H
  C27      1.0000 0.19900  0.26580  0.22410  Biso   1.000  C
  C28      1.0000 0.93310  0.25360  0.28060  Biso   1.000  C
  C29      1.0000 0.05820  0.25660  0.20610  Biso   1.000  C
  C30      1.0000 0.00830  0.25520  0.69950  Biso   1.000  C
  N4       1.0000 0.15320  0.26650  0.52580  Biso   1.000  N
  C31      1.0000 0.05770  0.25150  0.11020  Biso   1.000  C
  H13      1.0000 0.14240  0.25120  0.06040  Biso   1.000  H
  C32      1.0000 0.04780  0.26070  0.39790  Biso   1.000  C
  C33      1.0000 0.13320  0.26260  0.81780  Biso   1.000  C
  H14      1.0000 0.13190  0.26270  0.88200  Biso   1.000  H
  C34      1.0000 0.13740  0.26590  0.62460  Biso   1.000  C
  C35      1.0000 0.25880  0.27170  0.74430  Biso   1.000  C
  H15      1.0000 0.34240  0.27590  0.75950  Biso   1.000  H
  C36      1.0000 0.17410  0.26710  0.32550  Biso   1.000  C
  H16      1.0000 0.25380  0.27300  0.34490  Biso   1.000  H
  O10      1.0000 0.37060  0.35340  0.12160  Biso   1.000  O
  C37      1.0000 0.26370  0.27470  0.64780  Biso   1.000  C
  H17      1.0000 0.34970  0.28250  0.59850  Biso   1.000  H
  C38      1.0000 0.92990  0.24700  0.09000  Biso   1.000  C
  H18      1.0000 0.92790  0.24320  0.02730  Biso   1.000  H
  C39      1.0000 0.81190  0.24730  0.25890  Biso   1.000  C
  H19      1.0000 0.72850  0.24180  0.31060  Biso   1.000  H
  C40      1.0000 0.80130  0.24830  0.16900  Biso   1.000  C
  H20      1.0000 0.71400  0.24980  0.15800  Biso   1.000  H
