data_image0
_cell_length_a       19.2601
_cell_length_b       19.7648
_cell_length_c       21.6077
_cell_angle_alpha    78.141
_cell_angle_beta     82.001
_cell_angle_gamma    79.392

_symmetry_space_group_name_H-M    "P 1"
_symmetry_int_tables_number       1

loop_
  _symmetry_equiv_pos_as_xyz
  'x, y, z'

loop_
  _atom_site_label
  _atom_site_occupancy
  _atom_site_fract_x
  _atom_site_fract_y
  _atom_site_fract_z
  _atom_site_thermal_displace_type
  _atom_site_B_iso_or_equiv
  _atom_site_type_symbol
  Ag1      1.0000 0.24137  0.74254  0.34640  Biso   1.000  Ag
  Ag2      1.0000 0.08223  0.69846  0.35677  Biso   1.000  Ag
  Ag3      1.0000 0.21345  0.89786  0.30056  Biso   1.000  Ag
  Ag4      1.0000 0.27918  0.77362  0.20663  Biso   1.000  Ag
  Ag5      1.0000 0.12421  0.83383  0.23642  Biso   1.000  Ag
  Ag6      1.0000 0.14811  0.71447  0.46527  Biso   1.000  Ag
  Ag7      1.0000 0.21400  0.59256  0.37406  Biso   1.000  Ag
  Ag8      1.0000 0.98943  0.83602  0.31681  Biso   1.000  Ag
  Ag9      1.0000 0.04230  0.71170  0.22896  Biso   1.000  Ag
  Zn1      1.0000 0.20400  0.07727  0.33487  Biso   1.000  Zn
  Zn2      1.0000 0.11367  0.76875  0.60852  Biso   1.000  Zn
  S1       1.0000 0.92669  0.78795  0.25187  Biso   1.000  S
  S2       1.0000 0.11679  0.60513  0.29710  Biso   1.000  S
  S3       1.0000 0.20077  0.58968  0.48984  Biso   1.000  S
  S4       1.0000 0.30174  0.65510  0.28455  Biso   1.000  S
  S5       1.0000 0.31195  0.88538  0.21390  Biso   1.000  S
  S6       1.0000 0.07175  0.92639  0.29587  Biso   1.000  S
  S7       1.0000 0.02382  0.77768  0.42734  Biso   1.000  S
  S8       1.0000 0.16427  0.74678  0.17094  Biso   1.000  S
  S9       1.0000 0.20442  0.82903  0.41541  Biso   1.000  S
  O1       1.0000 0.87630  0.71990  0.10130  Biso   1.000  O
  O2       1.0000 0.97580  0.69480  0.14550  Biso   1.000  O
  O3       1.0000 0.30420  0.68440  0.02870  Biso   1.000  O
  O4       1.0000 0.32500  0.73590  0.10250  Biso   1.000  O
  O5       1.0000 0.09030  0.47380  0.19910  Biso   1.000  O
  O6       1.0000 0.17920  0.45510  0.25700  Biso   1.000  O
  O7       1.0000 0.39450  0.52390  0.22380  Biso   1.000  O
  O8       1.0000 0.39320  0.46030  0.32160  Biso   1.000  O
  O9       1.0000 0.19870  0.61430  0.65320  Biso   1.000  O
  O10      1.0000 0.20680  0.71380  0.58390  Biso   1.000  O
  O11      1.0000 0.05460  0.72270  0.56930  Biso   1.000  O
  O12      1.0000 0.95800  0.78750  0.60950  Biso   1.000  O
  O13      1.0000 0.21240  0.97770  0.48090  Biso   1.000  O
  O14      1.0000 0.26830  0.99560  0.38350  Biso   1.000  O
  O15      1.0000 0.21790  0.02750  0.26120  Biso   1.000  O
  O16      1.0000 0.30580  0.08820  0.22390  Biso   1.000  O
  O17      1.0000 0.96610  0.03860  0.35170  Biso   1.000  O
  O18      1.0000 0.87250  0.06630  0.29670  Biso   1.000  O
  N1       1.0000 0.15760  0.17120  0.27280  Biso   1.000  N
  N2       1.0000 0.25480  0.15640  0.35160  Biso   1.000  N
  C1       1.0000 0.30710  0.14530  0.38960  Biso   1.000  C
  H1       1.0000 0.32290  0.09950  0.41170  Biso   1.000  H
  C2       1.0000 0.33820  0.20150  0.39660  Biso   1.000  C
  H2       1.0000 0.37680  0.19280  0.42170  Biso   1.000  H
  C3       1.0000 0.31440  0.26840  0.36830  Biso   1.000  C
  H3       1.0000 0.33370  0.30650  0.37580  Biso   1.000  H
  C4       1.0000 0.26210  0.27960  0.32890  Biso   1.000  C
  H4       1.0000 0.24660  0.32540  0.30670  Biso   1.000  H
  C5       1.0000 0.23150  0.22330  0.32130  Biso   1.000  C
  C6       1.0000 0.17640  0.23060  0.27880  Biso   1.000  C
  C7       1.0000 0.14870  0.29370  0.24510  Biso   1.000  C
  H5       1.0000 0.16290  0.33540  0.25060  Biso   1.000  H
  C8       1.0000 0.09990  0.29690  0.20280  Biso   1.000  C
  H6       1.0000 0.08130  0.34020  0.17790  Biso   1.000  H
  C9       1.0000 0.07870  0.23450  0.19810  Biso   1.000  C
  H7       1.0000 0.04350  0.23410  0.17150  Biso   1.000  H
  C10      1.0000 0.11080  0.17360  0.23340  Biso   1.000  C
  H8       1.0000 0.09830  0.13070  0.22890  Biso   1.000  H
  C11      1.0000 0.25440  0.07450  0.10200  Biso   1.000  C
  H9       1.0000 0.24750  0.12270  0.10480  Biso   1.000  H
  C12      1.0000 0.24920  0.05500  0.04550  Biso   1.000  C
  H10      1.0000 0.24070  0.09050  0.00910  Biso   1.000  H
  C13      1.0000 0.25610  0.98570  0.03950  Biso   1.000  C
  H11      1.0000 0.24960  0.97360  0.00060  Biso   1.000  H
  C14      1.0000 0.27310  0.93300  0.09300  Biso   1.000  C
  H12      1.0000 0.27890  0.88510  0.08970  Biso   1.000  H
  C15      1.0000 0.28140  0.95110  0.15050  Biso   1.000  C
  C16      1.0000 0.26960  0.02340  0.15500  Biso   1.000  C
  C17      1.0000 0.04770  0.99600  0.23200  Biso   1.000  C
  C18      1.0000 0.08830  0.00320  0.17470  Biso   1.000  C
  H13      1.0000 0.12980  0.96970  0.16930  Biso   1.000  H
  C19      1.0000 0.07210  0.05710  0.12360  Biso   1.000  C
  H14      1.0000 0.10220  0.06050  0.08470  Biso   1.000  H
  C20      1.0000 0.01270  0.10440  0.13050  Biso   1.000  C
  H15      1.0000 0.00080  0.14130  0.09600  Biso   1.000  H
  C21      1.0000 0.96850  0.09970  0.18790  Biso   1.000  C
  H16      1.0000 0.92630  0.13270  0.19180  Biso   1.000  H
  C22      1.0000 0.26730  0.04730  0.21820  Biso   1.000  C
  C23      1.0000 0.98620  0.04710  0.23910  Biso   1.000  C
  C24      1.0000 0.93850  0.04960  0.30100  Biso   1.000  C
  C25      1.0000 0.92400  0.73690  0.12430  Biso   1.000  C
  C26      1.0000 0.92010  0.81450  0.12180  Biso   1.000  C
  C27      1.0000 0.92840  0.84100  0.17510  Biso   1.000  C
  C28      1.0000 0.93380  0.91060  0.16730  Biso   1.000  C
  H17      1.0000 0.94080  0.92930  0.20270  Biso   1.000  H
  C29      1.0000 0.92910  0.95510  0.10640  Biso   1.000  C
  H18      1.0000 0.93310  0.00320  0.10160  Biso   1.000  H
  C30      1.0000 0.91900  0.92920  0.05600  Biso   1.000  C
  H19      1.0000 0.91430  0.95910  0.01580  Biso   1.000  H
  C31      1.0000 0.91540  0.85960  0.06310  Biso   1.000  C
  H20      1.0000 0.90960  0.84140  0.02700  Biso   1.000  H
  C32      1.0000 0.28840  0.72970  0.06070  Biso   1.000  C
  C33      1.0000 0.22280  0.78390  0.04700  Biso   1.000  C
  C34      1.0000 0.21970  0.81950  0.98370  Biso   1.000  C
  H21      1.0000 0.25900  0.81070  0.95290  Biso   1.000  H
  C35      1.0000 0.16230  0.86570  0.96580  Biso   1.000  C
  H22      1.0000 0.16070  0.88780  0.92250  Biso   1.000  H
  C36      1.0000 0.10360  0.88170  0.01190  Biso   1.000  C
  H23      1.0000 0.06390  0.91620  0.00020  Biso   1.000  H
  C37      1.0000 0.10650  0.84620  0.07280  Biso   1.000  C
  H24      1.0000 0.06740  0.85600  0.10340  Biso   1.000  H
  C38      1.0000 0.16490  0.79560  0.09240  Biso   1.000  C
  C39      1.0000 0.98750  0.74620  0.57400  Biso   1.000  C
  C40      1.0000 0.95990  0.72690  0.46900  Biso   1.000  C
  C41      1.0000 0.94490  0.71890  0.53550  Biso   1.000  C
  C42      1.0000 0.89120  0.68230  0.56650  Biso   1.000  C
  H25      1.0000 0.87970  0.67930  0.61110  Biso   1.000  H
  C43      1.0000 0.85370  0.64990  0.53320  Biso   1.000  C
  H26      1.0000 0.81840  0.62350  0.55550  Biso   1.000  H
  C44      1.0000 0.86760  0.65630  0.46830  Biso   1.000  C
  H27      1.0000 0.84210  0.63460  0.44540  Biso   1.000  H
  C45      1.0000 0.91940  0.69480  0.43690  Biso   1.000  C
  H28      1.0000 0.92820  0.70000  0.39190  Biso   1.000  H
  C46      1.0000 0.02090  0.54810  0.39180  Biso   1.000  C
  H29      1.0000 0.02250  0.58540  0.41300  Biso   1.000  H
  C47      1.0000 0.06210  0.54210  0.33570  Biso   1.000  C
  C48      1.0000 0.11410  0.47230  0.24850  Biso   1.000  C
  C49      1.0000 0.06050  0.48590  0.30590  Biso   1.000  C
  C50      1.0000 0.01370  0.43750  0.33190  Biso   1.000  C
  H30      1.0000 0.01180  0.40050  0.31060  Biso   1.000  H
  C51      1.0000 0.97120  0.44340  0.38720  Biso   1.000  C
  H31      1.0000 0.93950  0.41100  0.40400  Biso   1.000  H
  C52      1.0000 0.97470  0.49640  0.41850  Biso   1.000  C
  H32      1.0000 0.94660  0.49930  0.45790  Biso   1.000  H
  C53      1.0000 0.22660  0.64920  0.60490  Biso   1.000  C
  C54      1.0000 0.29210  0.61570  0.56770  Biso   1.000  C
  C55      1.0000 0.35770  0.61130  0.59040  Biso   1.000  C
  H33      1.0000 0.36080  0.62530  0.62930  Biso   1.000  H
  C56      1.0000 0.41870  0.58540  0.55350  Biso   1.000  C
  H34      1.0000 0.46410  0.58330  0.56690  Biso   1.000  H
  C57      1.0000 0.41410  0.56270  0.49780  Biso   1.000  C
  H35      1.0000 0.45610  0.54420  0.47410  Biso   1.000  H
  C58      1.0000 0.34850  0.56700  0.47670  Biso   1.000  C
  H36      1.0000 0.34650  0.55380  0.43720  Biso   1.000  H
  C59      1.0000 0.28530  0.59030  0.51190  Biso   1.000  C
  C60      1.0000 0.25710  0.96030  0.43850  Biso   1.000  C
  C61      1.0000 0.30570  0.89120  0.45390  Biso   1.000  C
  C62      1.0000 0.37110  0.88920  0.47410  Biso   1.000  C
  H37      1.0000 0.38400  0.93210  0.47810  Biso   1.000  H
  C63      1.0000 0.41690  0.83090  0.48800  Biso   1.000  C
  H38      1.0000 0.46050  0.83180  0.50320  Biso   1.000  H
  C64      1.0000 0.39930  0.76720  0.47970  Biso   1.000  C
  H39      1.0000 0.43110  0.72460  0.48940  Biso   1.000  H
  C65      1.0000 0.33510  0.76730  0.45720  Biso   1.000  C
  H40      1.0000 0.32370  0.72450  0.45110  Biso   1.000  H
  C66      1.0000 0.28750  0.82850  0.44340  Biso   1.000  C
  C67      1.0000 0.38920  0.63620  0.30940  Biso   1.000  C
  C68      1.0000 0.41730  0.68550  0.33260  Biso   1.000  C
  H41      1.0000 0.39020  0.73050  0.33480  Biso   1.000  H
  C69      1.0000 0.48440  0.66860  0.35240  Biso   1.000  C
  H42      1.0000 0.50290  0.70140  0.36940  Biso   1.000  H
  C70      1.0000 0.52510  0.60390  0.34740  Biso   1.000  C
  H43      1.0000 0.57200  0.59350  0.35950  Biso   1.000  H
  C71      1.0000 0.49910  0.55570  0.32580  Biso   1.000  C
  H44      1.0000 0.52730  0.51130  0.32400  Biso   1.000  H
  C72      1.0000 0.43050  0.57020  0.30580  Biso   1.000  C
  C73      1.0000 0.40290  0.51440  0.28240  Biso   1.000  C
  Ag10     1.0000 0.75863  0.25746  0.65360  Biso   1.000  Ag
  Ag11     1.0000 0.91777  0.30154  0.64323  Biso   1.000  Ag
  Ag12     1.0000 0.78655  0.10214  0.69944  Biso   1.000  Ag
  Ag13     1.0000 0.72082  0.22638  0.79337  Biso   1.000  Ag
  Ag14     1.0000 0.87579  0.16617  0.76358  Biso   1.000  Ag
  Ag15     1.0000 0.85189  0.28553  0.53473  Biso   1.000  Ag
  Ag16     1.0000 0.78600  0.40744  0.62594  Biso   1.000  Ag
  Ag17     1.0000 0.01057  0.16398  0.68319  Biso   1.000  Ag
  Ag18     1.0000 0.95770  0.28830  0.77104  Biso   1.000  Ag
  Zn3      1.0000 0.79600  0.92273  0.66513  Biso   1.000  Zn
  Zn4      1.0000 0.88633  0.23125  0.39148  Biso   1.000  Zn
  S10      1.0000 0.07331  0.21205  0.74813  Biso   1.000  S
  S11      1.0000 0.88321  0.39487  0.70290  Biso   1.000  S
  S12      1.0000 0.79923  0.41032  0.51016  Biso   1.000  S
  S13      1.0000 0.69826  0.34490  0.71545  Biso   1.000  S
  S14      1.0000 0.68805  0.11462  0.78610  Biso   1.000  S
  S15      1.0000 0.92825  0.07361  0.70413  Biso   1.000  S
  S16      1.0000 0.97618  0.22232  0.57266  Biso   1.000  S
  S17      1.0000 0.83573  0.25322  0.82906  Biso   1.000  S
  S18      1.0000 0.79558  0.17097  0.58459  Biso   1.000  S
  O19      1.0000 0.12370  0.28010  0.89870  Biso   1.000  O
  O20      1.0000 0.02420  0.30520  0.85450  Biso   1.000  O
  O21      1.0000 0.69580  0.31560  0.97130  Biso   1.000  O
  O22      1.0000 0.67500  0.26410  0.89750  Biso   1.000  O
  O23      1.0000 0.90970  0.52620  0.80090  Biso   1.000  O
  O24      1.0000 0.82080  0.54490  0.74300  Biso   1.000  O
  O25      1.0000 0.60550  0.47610  0.77620  Biso   1.000  O
  O26      1.0000 0.60680  0.53970  0.67840  Biso   1.000  O
  O27      1.0000 0.80130  0.38570  0.34680  Biso   1.000  O
  O28      1.0000 0.79320  0.28620  0.41610  Biso   1.000  O
  O29      1.0000 0.94540  0.27730  0.43070  Biso   1.000  O
  O30      1.0000 0.04200  0.21250  0.39050  Biso   1.000  O
  O31      1.0000 0.78760  0.02230  0.51910  Biso   1.000  O
  O32      1.0000 0.73170  0.00440  0.61650  Biso   1.000  O
  O33      1.0000 0.78210  0.97250  0.73880  Biso   1.000  O
  O34      1.0000 0.69420  0.91180  0.77610  Biso   1.000  O
  O35      1.0000 0.03390  0.96140  0.64830  Biso   1.000  O
  O36      1.0000 0.12750  0.93370  0.70330  Biso   1.000  O
  N3       1.0000 0.84240  0.82880  0.72720  Biso   1.000  N
  N4       1.0000 0.74520  0.84360  0.64840  Biso   1.000  N
  C74      1.0000 0.69290  0.85470  0.61040  Biso   1.000  C
  H45      1.0000 0.67710  0.90050  0.58830  Biso   1.000  H
  C75      1.0000 0.66180  0.79850  0.60340  Biso   1.000  C
  H46      1.0000 0.62320  0.80720  0.57830  Biso   1.000  H
  C76      1.0000 0.68560  0.73160  0.63170  Biso   1.000  C
  H47      1.0000 0.66630  0.69350  0.62420  Biso   1.000  H
  C77      1.0000 0.73790  0.72040  0.67110  Biso   1.000  C
  H48      1.0000 0.75340  0.67460  0.69330  Biso   1.000  H
  C78      1.0000 0.76850  0.77670  0.67870  Biso   1.000  C
  C79      1.0000 0.82360  0.76940  0.72120  Biso   1.000  C
  C80      1.0000 0.85130  0.70630  0.75490  Biso   1.000  C
  H49      1.0000 0.83710  0.66460  0.74940  Biso   1.000  H
  C81      1.0000 0.90010  0.70310  0.79720  Biso   1.000  C
  H50      1.0000 0.91870  0.65980  0.82210  Biso   1.000  H
  C82      1.0000 0.92130  0.76550  0.80190  Biso   1.000  C
  H51      1.0000 0.95650  0.76590  0.82850  Biso   1.000  H
  C83      1.0000 0.88920  0.82640  0.76660  Biso   1.000  C
  H52      1.0000 0.90170  0.86930  0.77110  Biso   1.000  H
  C84      1.0000 0.74560  0.92550  0.89800  Biso   1.000  C
  H53      1.0000 0.75250  0.87730  0.89520  Biso   1.000  H
  C85      1.0000 0.75080  0.94500  0.95450  Biso   1.000  C
  H54      1.0000 0.75930  0.90950  0.99090  Biso   1.000  H
  C86      1.0000 0.74390  0.01430  0.96050  Biso   1.000  C
  H55      1.0000 0.75040  0.02640  0.99940  Biso   1.000  H
  C87      1.0000 0.72690  0.06700  0.90700  Biso   1.000  C
  H56      1.0000 0.72110  0.11490  0.91030  Biso   1.000  H
  C88      1.0000 0.71860  0.04890  0.84950  Biso   1.000  C
  C89      1.0000 0.73040  0.97660  0.84500  Biso   1.000  C
  C90      1.0000 0.95230  0.00400  0.76800  Biso   1.000  C
  C91      1.0000 0.91170  0.99680  0.82530  Biso   1.000  C
  H57      1.0000 0.87020  0.03030  0.83070  Biso   1.000  H
  C92      1.0000 0.92790  0.94290  0.87640  Biso   1.000  C
  H58      1.0000 0.89780  0.93950  0.91530  Biso   1.000  H
  C93      1.0000 0.98730  0.89560  0.86950  Biso   1.000  C
  H59      1.0000 0.99920  0.85870  0.90400  Biso   1.000  H
  C94      1.0000 0.03150  0.90030  0.81210  Biso   1.000  C
  H60      1.0000 0.07370  0.86730  0.80820  Biso   1.000  H
  C95      1.0000 0.73270  0.95270  0.78180  Biso   1.000  C
  C96      1.0000 0.01380  0.95290  0.76090  Biso   1.000  C
  C97      1.0000 0.06150  0.95040  0.69900  Biso   1.000  C
  C98      1.0000 0.07600  0.26310  0.87570  Biso   1.000  C
  C99      1.0000 0.07990  0.18550  0.87820  Biso   1.000  C
  C100     1.0000 0.07160  0.15900  0.82490  Biso   1.000  C
  C101     1.0000 0.06620  0.08940  0.83270  Biso   1.000  C
  H61      1.0000 0.05920  0.07070  0.79730  Biso   1.000  H
  C102     1.0000 0.07090  0.04490  0.89360  Biso   1.000  C
  H62      1.0000 0.06690  0.99680  0.89840  Biso   1.000  H
  C103     1.0000 0.08100  0.07080  0.94400  Biso   1.000  C
  H63      1.0000 0.08570  0.04090  0.98420  Biso   1.000  H
  C104     1.0000 0.08460  0.14040  0.93690  Biso   1.000  C
  H64      1.0000 0.09040  0.15860  0.97300  Biso   1.000  H
  C105     1.0000 0.71160  0.27030  0.93930  Biso   1.000  C
  C106     1.0000 0.77720  0.21610  0.95300  Biso   1.000  C
  C107     1.0000 0.78030  0.18050  0.01630  Biso   1.000  C
  H65      1.0000 0.74100  0.18930  0.04710  Biso   1.000  H
  C108     1.0000 0.83770  0.13430  0.03420  Biso   1.000  C
  H66      1.0000 0.83930  0.11220  0.07750  Biso   1.000  H
  C109     1.0000 0.89640  0.11830  0.98810  Biso   1.000  C
  H67      1.0000 0.93610  0.08380  0.99980  Biso   1.000  H
  C110     1.0000 0.89350  0.15380  0.92720  Biso   1.000  C
  H68      1.0000 0.93260  0.14400  0.89660  Biso   1.000  H
  C111     1.0000 0.83510  0.20440  0.90760  Biso   1.000  C
  C112     1.0000 0.01250  0.25380  0.42600  Biso   1.000  C
  C113     1.0000 0.04010  0.27310  0.53100  Biso   1.000  C
  C114     1.0000 0.05510  0.28110  0.46450  Biso   1.000  C
  C115     1.0000 0.10880  0.31770  0.43350  Biso   1.000  C
  H69      1.0000 0.12030  0.32070  0.38890  Biso   1.000  H
  C116     1.0000 0.14630  0.35010  0.46680  Biso   1.000  C
  H70      1.0000 0.18160  0.37650  0.44450  Biso   1.000  H
  C117     1.0000 0.13240  0.34370  0.53170  Biso   1.000  C
  H71      1.0000 0.15790  0.36540  0.55460  Biso   1.000  H
  C118     1.0000 0.08060  0.30520  0.56310  Biso   1.000  C
  H72      1.0000 0.07180  0.30000  0.60810  Biso   1.000  H
  C119     1.0000 0.97910  0.45190  0.60820  Biso   1.000  C
  H73      1.0000 0.97750  0.41460  0.58700  Biso   1.000  H
  C120     1.0000 0.93790  0.45790  0.66430  Biso   1.000  C
  C121     1.0000 0.88590  0.52770  0.75150  Biso   1.000  C
  C122     1.0000 0.93950  0.51410  0.69410  Biso   1.000  C
  C123     1.0000 0.98630  0.56250  0.66810  Biso   1.000  C
  H74      1.0000 0.98820  0.59950  0.68940  Biso   1.000  H
  C124     1.0000 0.02880  0.55660  0.61280  Biso   1.000  C
  H75      1.0000 0.06050  0.58900  0.59600  Biso   1.000  H
  C125     1.0000 0.02530  0.50360  0.58150  Biso   1.000  C
  H76      1.0000 0.05340  0.50070  0.54210  Biso   1.000  H
  C126     1.0000 0.77340  0.35080  0.39510  Biso   1.000  C
  C127     1.0000 0.70790  0.38430  0.43230  Biso   1.000  C
  C128     1.0000 0.64230  0.38870  0.40960  Biso   1.000  C
  H77      1.0000 0.63920  0.37470  0.37070  Biso   1.000  H
  C129     1.0000 0.58130  0.41460  0.44650  Biso   1.000  C
  H78      1.0000 0.53590  0.41670  0.43310  Biso   1.000  H
  C130     1.0000 0.58590  0.43730  0.50220  Biso   1.000  C
  H79      1.0000 0.54390  0.45580  0.52590  Biso   1.000  H
  C131     1.0000 0.65150  0.43300  0.52330  Biso   1.000  C
  H80      1.0000 0.65350  0.44620  0.56280  Biso   1.000  H
  C132     1.0000 0.71470  0.40970  0.48810  Biso   1.000  C
  C133     1.0000 0.74290  0.03970  0.56150  Biso   1.000  C
  C134     1.0000 0.69430  0.10880  0.54610  Biso   1.000  C
  C135     1.0000 0.62890  0.11080  0.52590  Biso   1.000  C
  H81      1.0000 0.61600  0.06790  0.52190  Biso   1.000  H
  C136     1.0000 0.58310  0.16910  0.51200  Biso   1.000  C
  H82      1.0000 0.53950  0.16820  0.49680  Biso   1.000  H
  C137     1.0000 0.60070  0.23280  0.52030  Biso   1.000  C
  H83      1.0000 0.56890  0.27540  0.51060  Biso   1.000  H
  C138     1.0000 0.66490  0.23270  0.54280  Biso   1.000  C
  H84      1.0000 0.67630  0.27550  0.54890  Biso   1.000  H
  C139     1.0000 0.71250  0.17150  0.55660  Biso   1.000  C
  C140     1.0000 0.61080  0.36380  0.69060  Biso   1.000  C
  C141     1.0000 0.58270  0.31450  0.66740  Biso   1.000  C
  H85      1.0000 0.60980  0.26950  0.66520  Biso   1.000  H
  C142     1.0000 0.51560  0.33140  0.64760  Biso   1.000  C
  H86      1.0000 0.49710  0.29860  0.63060  Biso   1.000  H
  C143     1.0000 0.47490  0.39610  0.65260  Biso   1.000  C
  H87      1.0000 0.42800  0.40650  0.64050  Biso   1.000  H
  C144     1.0000 0.50090  0.44430  0.67420  Biso   1.000  C
  H88      1.0000 0.47270  0.48870  0.67600  Biso   1.000  H
  C145     1.0000 0.56950  0.42980  0.69420  Biso   1.000  C
  C146     1.0000 0.59710  0.48560  0.71760  Biso   1.000  C
