data_image0
_cell_length_a       9.924
_cell_length_b       11.943
_cell_length_c       12.99
_cell_angle_alpha    83.38
_cell_angle_beta     78.43
_cell_angle_gamma    84.24

_symmetry_space_group_name_H-M    "P 1"
_symmetry_int_tables_number       1

loop_
  _symmetry_equiv_pos_as_xyz
  'x, y, z'

loop_
  _atom_site_label
  _atom_site_occupancy
  _atom_site_fract_x
  _atom_site_fract_y
  _atom_site_fract_z
  _atom_site_thermal_displace_type
  _atom_site_B_iso_or_equiv
  _atom_site_type_symbol
  Ru1      1.0000 0.11965  0.99195  0.98512  Biso   1.000  Ru
  Cl1      1.0000 0.99050  0.20910  0.33350  Biso   1.000  Cl
  Cl2      1.0000 0.96940  0.33910  0.78150  Biso   1.000  Cl
  O1       1.0000 0.12460  0.04060  0.82360  Biso   1.000  O
  O2       1.0000 0.89140  0.05620  0.85200  Biso   1.000  O
  O3       1.0000 0.25720  0.11620  0.63880  Biso   1.000  O
  O4       1.0000 0.11920  0.82490  0.94870  Biso   1.000  O
  O5       1.0000 0.88190  0.83930  0.98010  Biso   1.000  O
  O6       1.0000 0.23930  0.62050  0.92200  Biso   1.000  O
  N1       1.0000 0.36890  0.98120  0.97080  Biso   1.000  N
  C1       1.0000 0.01160  0.06210  0.79330  Biso   1.000  C
  C2       1.0000 0.00820  0.09970  0.67690  Biso   1.000  C
  C3       1.0000 0.13300  0.12270  0.59870  Biso   1.000  C
  C4       1.0000 0.38400  0.14600  0.56390  Biso   1.000  C
  C5       1.0000 0.12000  0.15660  0.49600  Biso   1.000  C
  C6       1.0000 0.99500  0.16680  0.46870  Biso   1.000  C
  C7       1.0000 0.87300  0.14510  0.53650  Biso   1.000  C
  C8       1.0000 0.87870  0.11090  0.64090  Biso   1.000  C
  C9       1.0000 0.00220  0.78630  0.94960  Biso   1.000  C
  C10      1.0000 0.00190  0.67220  0.91100  Biso   1.000  C
  C11      1.0000 0.11610  0.59570  0.89310  Biso   1.000  C
  C12      1.0000 0.36400  0.53620  0.90300  Biso   1.000  C
  C13      1.0000 0.10800  0.48880  0.84900  Biso   1.000  C
  C14      1.0000 0.97800  0.47150  0.82950  Biso   1.000  C
  C15      1.0000 0.86700  0.54480  0.84120  Biso   1.000  C
  C16      1.0000 0.87750  0.65120  0.88580  Biso   1.000  C
  C17      1.0000 0.44070  0.07860  0.92870  Biso   1.000  C
  C18      1.0000 0.56680  0.09480  0.95950  Biso   1.000  C
  C19      1.0000 0.63010  0.19940  0.92000  Biso   1.000  C
  C20      1.0000 0.57410  0.27580  0.85000  Biso   1.000  C
  C21      1.0000 0.45370  0.25540  0.81250  Biso   1.000  C
  C22      1.0000 0.38550  0.16040  0.85400  Biso   1.000  C
  H1       1.0000 0.46181  0.13836  0.60133  Biso   1.000  H
  H2       1.0000 0.40364  0.09584  0.50752  Biso   1.000  H
  H3       1.0000 0.37187  0.22472  0.53339  Biso   1.000  H
  H4       1.0000 0.19976  0.17298  0.44410  Biso   1.000  H
  H5       1.0000 0.78788  0.15343  0.51251  Biso   1.000  H
  H6       1.0000 0.79639  0.09449  0.68950  Biso   1.000  H
  H7       1.0000 0.44123  0.56404  0.92656  Biso   1.000  H
  H8       1.0000 0.34176  0.46336  0.94277  Biso   1.000  H
  H9       1.0000 0.38964  0.52647  0.82757  Biso   1.000  H
  H10      1.0000 0.17594  0.48639  0.78203  Biso   1.000  H
  H11      1.0000 0.13543  0.42532  0.89864  Biso   1.000  H
  H12      1.0000 0.78385  0.52921  0.82175  Biso   1.000  H
  H13      1.0000 0.85292  0.71444  0.83483  Biso   1.000  H
  H14      1.0000 0.80602  0.65472  0.95075  Biso   1.000  H
  H15      1.0000 0.71090  0.21514  0.94274  Biso   1.000  H
  H16      1.0000 0.61656  0.34432  0.82565  Biso   1.000  H
  H17      1.0000 0.42103  0.30667  0.75976  Biso   1.000  H
  H18      1.0000 0.30184  0.14873  0.83336  Biso   1.000  H
  Ru2      1.0000 0.88035  0.00805  0.01488  Biso   1.000  Ru
  Cl3      1.0000 0.00950  0.79090  0.66650  Biso   1.000  Cl
  Cl4      1.0000 0.03060  0.66090  0.21850  Biso   1.000  Cl
  O7       1.0000 0.87540  0.95940  0.17640  Biso   1.000  O
  O8       1.0000 0.10860  0.94380  0.14800  Biso   1.000  O
  O9       1.0000 0.74280  0.88380  0.36120  Biso   1.000  O
  O10      1.0000 0.88080  0.17510  0.05130  Biso   1.000  O
  O11      1.0000 0.11810  0.16070  0.01990  Biso   1.000  O
  O12      1.0000 0.76070  0.37950  0.07800  Biso   1.000  O
  N2       1.0000 0.63110  0.01880  0.02920  Biso   1.000  N
  C23      1.0000 0.98840  0.93790  0.20670  Biso   1.000  C
  C24      1.0000 0.99180  0.90030  0.32310  Biso   1.000  C
  C25      1.0000 0.86700  0.87730  0.40130  Biso   1.000  C
  C26      1.0000 0.61600  0.85400  0.43610  Biso   1.000  C
  C27      1.0000 0.88000  0.84340  0.50400  Biso   1.000  C
  C28      1.0000 0.00500  0.83320  0.53130  Biso   1.000  C
  C29      1.0000 0.12700  0.85490  0.46350  Biso   1.000  C
  C30      1.0000 0.12130  0.88910  0.35910  Biso   1.000  C
  C31      1.0000 0.99780  0.21370  0.05040  Biso   1.000  C
  C32      1.0000 0.99810  0.32780  0.08900  Biso   1.000  C
  C33      1.0000 0.88390  0.40430  0.10690  Biso   1.000  C
  C34      1.0000 0.63600  0.46380  0.09700  Biso   1.000  C
  C35      1.0000 0.89200  0.51120  0.15100  Biso   1.000  C
  C36      1.0000 0.02200  0.52850  0.17050  Biso   1.000  C
  C37      1.0000 0.13300  0.45520  0.15880  Biso   1.000  C
  C38      1.0000 0.12250  0.34880  0.11420  Biso   1.000  C
  C39      1.0000 0.55930  0.92140  0.07130  Biso   1.000  C
  C40      1.0000 0.43320  0.90520  0.04050  Biso   1.000  C
  C41      1.0000 0.36990  0.80060  0.08000  Biso   1.000  C
  C42      1.0000 0.42590  0.72420  0.15000  Biso   1.000  C
  C43      1.0000 0.54630  0.74460  0.18750  Biso   1.000  C
  C44      1.0000 0.61450  0.83960  0.14600  Biso   1.000  C
  H19      1.0000 0.53819  0.86164  0.39867  Biso   1.000  H
  H20      1.0000 0.59636  0.90416  0.49248  Biso   1.000  H
  H21      1.0000 0.62813  0.77528  0.46661  Biso   1.000  H
  H22      1.0000 0.80024  0.82702  0.55590  Biso   1.000  H
  H23      1.0000 0.21212  0.84657  0.48749  Biso   1.000  H
  H24      1.0000 0.20361  0.90551  0.31050  Biso   1.000  H
  H25      1.0000 0.55877  0.43596  0.07344  Biso   1.000  H
  H26      1.0000 0.65824  0.53664  0.05723  Biso   1.000  H
  H27      1.0000 0.61036  0.47353  0.17243  Biso   1.000  H
  H28      1.0000 0.82406  0.51361  0.21797  Biso   1.000  H
  H29      1.0000 0.86457  0.57468  0.10136  Biso   1.000  H
  H30      1.0000 0.21615  0.47079  0.17825  Biso   1.000  H
  H31      1.0000 0.14708  0.28556  0.16517  Biso   1.000  H
  H32      1.0000 0.19398  0.34528  0.04925  Biso   1.000  H
  H33      1.0000 0.28910  0.78486  0.05726  Biso   1.000  H
  H34      1.0000 0.38344  0.65568  0.17435  Biso   1.000  H
  H35      1.0000 0.57897  0.69333  0.24024  Biso   1.000  H
  H36      1.0000 0.69816  0.85127  0.16664  Biso   1.000  H
