data_image0
_cell_length_a       15.2465
_cell_length_b       18.306
_cell_length_c       28.5486
_cell_angle_alpha    90
_cell_angle_beta     90
_cell_angle_gamma    90

_symmetry_space_group_name_H-M    "P 1"
_symmetry_int_tables_number       1

loop_
  _symmetry_equiv_pos_as_xyz
  'x, y, z'

loop_
  _atom_site_label
  _atom_site_occupancy
  _atom_site_fract_x
  _atom_site_fract_y
  _atom_site_fract_z
  _atom_site_thermal_displace_type
  _atom_site_B_iso_or_equiv
  _atom_site_type_symbol
  Ag1      1.0000 0.07309  0.58327  0.62560  Biso   1.000  Ag
  Ag2      1.0000 0.58409  0.82392  0.62771  Biso   1.000  Ag
  N1       1.0000 0.64350  0.76441  0.68974  Biso   1.000  N
  N2       1.0000 0.03420  0.65010  0.56140  Biso   1.000  N
  N3       1.0000 0.17930  0.62850  0.67518  Biso   1.000  N
  N4       1.0000 0.52580  0.69740  0.58755  Biso   1.000  N
  C1       1.0000 0.23760  0.59640  0.55937  Biso   1.000  C
  H1       1.0000 0.21040  0.55050  0.56480  Biso   1.000  H
  C2       1.0000 0.79510  0.79400  0.66266  Biso   1.000  C
  H2       1.0000 0.85130  0.81560  0.67310  Biso   1.000  H
  H3       1.0000 0.77380  0.82310  0.63570  Biso   1.000  H
  C3       1.0000 0.09670  0.63950  0.52226  Biso   1.000  C
  H4       1.0000 0.08190  0.67380  0.49670  Biso   1.000  H
  H5       1.0000 0.09040  0.58920  0.51000  Biso   1.000  H
  C4       1.0000 0.58400  0.76900  0.73102  Biso   1.000  C
  H6       1.0000 0.57950  0.82050  0.74130  Biso   1.000  H
  H7       1.0000 0.60940  0.74040  0.75720  Biso   1.000  H
  C5       1.0000 0.35320  0.75270  0.68259  Biso   1.000  C
  H8       1.0000 0.31360  0.78080  0.66430  Biso   1.000  H
  C6       1.0000 0.38900  0.64160  0.72461  Biso   1.000  C
  H9       1.0000 0.37300  0.59440  0.73550  Biso   1.000  H
  C7       1.0000 0.43370  0.78120  0.69520  Biso   1.000  C
  H10      1.0000 0.44810  0.82980  0.68650  Biso   1.000  H
  C8       1.0000 0.94630  0.62700  0.54494  Biso   1.000  C
  H11      1.0000 0.94890  0.57530  0.53480  Biso   1.000  H
  H12      1.0000 0.92940  0.65690  0.51750  Biso   1.000  H
  C9       1.0000 0.72880  0.79940  0.70231  Biso   1.000  C
  H13      1.0000 0.75300  0.77540  0.73060  Biso   1.000  H
  H14      1.0000 0.71870  0.85150  0.70990  Biso   1.000  H
  C10      1.0000 0.49350  0.74040  0.72016  Biso   1.000  C
  C11      1.0000 0.32330  0.60760  0.57382  Biso   1.000  C
  H15      1.0000 0.35440  0.56970  0.58940  Biso   1.000  H
  C12      1.0000 0.33070  0.68240  0.69702  Biso   1.000  C
  C13      1.0000 0.46990  0.67090  0.73579  Biso   1.000  C
  H16      1.0000 0.50980  0.64340  0.75430  Biso   1.000  H
  C14      1.0000 0.96530  0.73840  0.61596  Biso   1.000  C
  H17      1.0000 0.96300  0.79070  0.62460  Biso   1.000  H
  H18      1.0000 0.98650  0.71080  0.64350  Biso   1.000  H
  C15      1.0000 0.87210  0.71200  0.60319  Biso   1.000  C
  H19      1.0000 0.84780  0.74540  0.57870  Biso   1.000  H
  C16      1.0000 0.19120  0.65170  0.53701  Biso   1.000  C
  C17      1.0000 0.81170  0.71500  0.64634  Biso   1.000  C
  H20      1.0000 0.84050  0.68770  0.67250  Biso   1.000  H
  C18      1.0000 0.72190  0.67970  0.63654  Biso   1.000  C
  H21      1.0000 0.69510  0.70330  0.60880  Biso   1.000  H
  H22      1.0000 0.73040  0.62730  0.62920  Biso   1.000  H
  C19      1.0000 0.66040  0.68680  0.67770  Biso   1.000  C
  H23      1.0000 0.60420  0.66250  0.67020  Biso   1.000  H
  H24      1.0000 0.68630  0.66180  0.70520  Biso   1.000  H
  C20      1.0000 0.36370  0.67470  0.56541  Biso   1.000  C
  C21      1.0000 0.24700  0.65180  0.68475  Biso   1.000  C
  C22      1.0000 0.23260  0.71810  0.52866  Biso   1.000  C
  H25      1.0000 0.20140  0.75580  0.51300  Biso   1.000  H
  C23      1.0000 0.02950  0.72820  0.57566  Biso   1.000  C
  H26      1.0000 0.01050  0.75820  0.54860  Biso   1.000  H
  H27      1.0000 0.08840  0.74520  0.58540  Biso   1.000  H
  C24      1.0000 0.31810  0.73040  0.54273  Biso   1.000  C
  H28      1.0000 0.34540  0.77620  0.53700  Biso   1.000  H
  C25      1.0000 0.87760  0.63520  0.58257  Biso   1.000  C
  H29      1.0000 0.89050  0.60020  0.60810  Biso   1.000  H
  H30      1.0000 0.81970  0.62210  0.56930  Biso   1.000  H
  C26      1.0000 0.45380  0.68680  0.57848  Biso   1.000  C
  Ag3      1.0000 0.42691  0.41673  0.12560  Biso   1.000  Ag
  Ag4      1.0000 0.91591  0.17608  0.12771  Biso   1.000  Ag
  N5       1.0000 0.85650  0.23559  0.18974  Biso   1.000  N
  N6       1.0000 0.46580  0.34990  0.06140  Biso   1.000  N
  N7       1.0000 0.32070  0.37150  0.17518  Biso   1.000  N
  N8       1.0000 0.97420  0.30260  0.08755  Biso   1.000  N
  C27      1.0000 0.26240  0.40360  0.05937  Biso   1.000  C
  H31      1.0000 0.28960  0.44950  0.06480  Biso   1.000  H
  C28      1.0000 0.70490  0.20600  0.16266  Biso   1.000  C
  H32      1.0000 0.64870  0.18440  0.17310  Biso   1.000  H
  H33      1.0000 0.72620  0.17690  0.13570  Biso   1.000  H
  C29      1.0000 0.40330  0.36050  0.02226  Biso   1.000  C
  H34      1.0000 0.41810  0.32620  0.99670  Biso   1.000  H
  H35      1.0000 0.40960  0.41080  0.01000  Biso   1.000  H
  C30      1.0000 0.91600  0.23100  0.23102  Biso   1.000  C
  H36      1.0000 0.92050  0.17950  0.24130  Biso   1.000  H
  H37      1.0000 0.89060  0.25960  0.25720  Biso   1.000  H
  C31      1.0000 0.14680  0.24730  0.18259  Biso   1.000  C
  H38      1.0000 0.18640  0.21920  0.16430  Biso   1.000  H
  C32      1.0000 0.11100  0.35840  0.22461  Biso   1.000  C
  H39      1.0000 0.12700  0.40560  0.23550  Biso   1.000  H
  C33      1.0000 0.06630  0.21880  0.19520  Biso   1.000  C
  H40      1.0000 0.05190  0.17020  0.18650  Biso   1.000  H
  C34      1.0000 0.55370  0.37300  0.04494  Biso   1.000  C
  H41      1.0000 0.55110  0.42470  0.03480  Biso   1.000  H
  H42      1.0000 0.57060  0.34310  0.01750  Biso   1.000  H
  C35      1.0000 0.77120  0.20060  0.20231  Biso   1.000  C
  H43      1.0000 0.74700  0.22460  0.23060  Biso   1.000  H
  H44      1.0000 0.78130  0.14850  0.20990  Biso   1.000  H
  C36      1.0000 0.00650  0.25960  0.22016  Biso   1.000  C
  C37      1.0000 0.17670  0.39240  0.07382  Biso   1.000  C
  H45      1.0000 0.14560  0.43030  0.08940  Biso   1.000  H
  C38      1.0000 0.16930  0.31760  0.19702  Biso   1.000  C
  C39      1.0000 0.03010  0.32910  0.23579  Biso   1.000  C
  H46      1.0000 0.99020  0.35660  0.25430  Biso   1.000  H
  C40      1.0000 0.53470  0.26160  0.11596  Biso   1.000  C
  H47      1.0000 0.53700  0.20930  0.12460  Biso   1.000  H
  H48      1.0000 0.51350  0.28920  0.14350  Biso   1.000  H
  C41      1.0000 0.62790  0.28800  0.10319  Biso   1.000  C
  H49      1.0000 0.65220  0.25460  0.07870  Biso   1.000  H
  C42      1.0000 0.30880  0.34830  0.03701  Biso   1.000  C
  C43      1.0000 0.68830  0.28500  0.14634  Biso   1.000  C
  H50      1.0000 0.65950  0.31230  0.17250  Biso   1.000  H
  C44      1.0000 0.77810  0.32030  0.13654  Biso   1.000  C
  H51      1.0000 0.80490  0.29670  0.10880  Biso   1.000  H
  H52      1.0000 0.76960  0.37270  0.12920  Biso   1.000  H
  C45      1.0000 0.83960  0.31320  0.17770  Biso   1.000  C
  H53      1.0000 0.89580  0.33750  0.17020  Biso   1.000  H
  H54      1.0000 0.81370  0.33820  0.20520  Biso   1.000  H
  C46      1.0000 0.13630  0.32530  0.06541  Biso   1.000  C
  C47      1.0000 0.25300  0.34820  0.18475  Biso   1.000  C
  C48      1.0000 0.26740  0.28190  0.02866  Biso   1.000  C
  H55      1.0000 0.29860  0.24420  0.01300  Biso   1.000  H
  C49      1.0000 0.47050  0.27180  0.07566  Biso   1.000  C
  H56      1.0000 0.48950  0.24180  0.04860  Biso   1.000  H
  H57      1.0000 0.41160  0.25480  0.08540  Biso   1.000  H
  C50      1.0000 0.18190  0.26960  0.04273  Biso   1.000  C
  H58      1.0000 0.15460  0.22380  0.03700  Biso   1.000  H
  C51      1.0000 0.62240  0.36480  0.08257  Biso   1.000  C
  H59      1.0000 0.60950  0.39980  0.10810  Biso   1.000  H
  H60      1.0000 0.68030  0.37790  0.06930  Biso   1.000  H
  C52      1.0000 0.04620  0.31320  0.07848  Biso   1.000  C
  Ag5      1.0000 0.92691  0.08327  0.87440  Biso   1.000  Ag
  Ag6      1.0000 0.41591  0.32392  0.87229  Biso   1.000  Ag
  N9       1.0000 0.35650  0.26441  0.81026  Biso   1.000  N
  N10      1.0000 0.96580  0.15010  0.93860  Biso   1.000  N
  N11      1.0000 0.82070  0.12850  0.82482  Biso   1.000  N
  N12      1.0000 0.47420  0.19740  0.91245  Biso   1.000  N
  C53      1.0000 0.76240  0.09640  0.94063  Biso   1.000  C
  H61      1.0000 0.78960  0.05050  0.93520  Biso   1.000  H
  C54      1.0000 0.20490  0.29400  0.83734  Biso   1.000  C
  H62      1.0000 0.14870  0.31560  0.82690  Biso   1.000  H
  H63      1.0000 0.22620  0.32310  0.86430  Biso   1.000  H
  C55      1.0000 0.90330  0.13950  0.97774  Biso   1.000  C
  H64      1.0000 0.91810  0.17380  0.00330  Biso   1.000  H
  H65      1.0000 0.90960  0.08920  0.99000  Biso   1.000  H
  C56      1.0000 0.41600  0.26900  0.76898  Biso   1.000  C
  H66      1.0000 0.42050  0.32050  0.75870  Biso   1.000  H
  H67      1.0000 0.39060  0.24040  0.74280  Biso   1.000  H
  C57      1.0000 0.64680  0.25270  0.81741  Biso   1.000  C
  H68      1.0000 0.68640  0.28080  0.83570  Biso   1.000  H
  C58      1.0000 0.61100  0.14160  0.77539  Biso   1.000  C
  H69      1.0000 0.62700  0.09440  0.76450  Biso   1.000  H
  C59      1.0000 0.56630  0.28120  0.80480  Biso   1.000  C
  H70      1.0000 0.55190  0.32980  0.81350  Biso   1.000  H
  C60      1.0000 0.05370  0.12700  0.95506  Biso   1.000  C
  H71      1.0000 0.05110  0.07530  0.96520  Biso   1.000  H
  H72      1.0000 0.07060  0.15690  0.98250  Biso   1.000  H
  C61      1.0000 0.27120  0.29940  0.79769  Biso   1.000  C
  H73      1.0000 0.24700  0.27540  0.76940  Biso   1.000  H
  H74      1.0000 0.28130  0.35150  0.79010  Biso   1.000  H
  C62      1.0000 0.50650  0.24040  0.77984  Biso   1.000  C
  C63      1.0000 0.67670  0.10760  0.92618  Biso   1.000  C
  H75      1.0000 0.64560  0.06970  0.91060  Biso   1.000  H
  C64      1.0000 0.66930  0.18240  0.80298  Biso   1.000  C
  C65      1.0000 0.53010  0.17090  0.76421  Biso   1.000  C
  H76      1.0000 0.49020  0.14340  0.74570  Biso   1.000  H
  C66      1.0000 0.03470  0.23840  0.88404  Biso   1.000  C
  H77      1.0000 0.03700  0.29070  0.87540  Biso   1.000  H
  H78      1.0000 0.01350  0.21080  0.85650  Biso   1.000  H
  C67      1.0000 0.12790  0.21200  0.89681  Biso   1.000  C
  H79      1.0000 0.15220  0.24540  0.92130  Biso   1.000  H
  C68      1.0000 0.80880  0.15170  0.96299  Biso   1.000  C
  C69      1.0000 0.18830  0.21500  0.85366  Biso   1.000  C
  H80      1.0000 0.15950  0.18770  0.82750  Biso   1.000  H
  C70      1.0000 0.27810  0.17970  0.86346  Biso   1.000  C
  H81      1.0000 0.30490  0.20330  0.89120  Biso   1.000  H
  H82      1.0000 0.26960  0.12730  0.87080  Biso   1.000  H
  C71      1.0000 0.33960  0.18680  0.82230  Biso   1.000  C
  H83      1.0000 0.39580  0.16250  0.82980  Biso   1.000  H
  H84      1.0000 0.31370  0.16180  0.79480  Biso   1.000  H
  C72      1.0000 0.63630  0.17470  0.93459  Biso   1.000  C
  C73      1.0000 0.75300  0.15180  0.81525  Biso   1.000  C
  C74      1.0000 0.76740  0.21810  0.97134  Biso   1.000  C
  H85      1.0000 0.79860  0.25580  0.98700  Biso   1.000  H
  C75      1.0000 0.97050  0.22820  0.92434  Biso   1.000  C
  H86      1.0000 0.98950  0.25820  0.95140  Biso   1.000  H
  H87      1.0000 0.91160  0.24520  0.91460  Biso   1.000  H
  C76      1.0000 0.68190  0.23040  0.95727  Biso   1.000  C
  H88      1.0000 0.65460  0.27620  0.96300  Biso   1.000  H
  C77      1.0000 0.12240  0.13520  0.91743  Biso   1.000  C
  H89      1.0000 0.10950  0.10020  0.89190  Biso   1.000  H
  H90      1.0000 0.18030  0.12210  0.93070  Biso   1.000  H
  C78      1.0000 0.54620  0.18680  0.92152  Biso   1.000  C
  Ag7      1.0000 0.57309  0.91673  0.37440  Biso   1.000  Ag
  Ag8      1.0000 0.08409  0.67608  0.37229  Biso   1.000  Ag
  N13      1.0000 0.14350  0.73559  0.31026  Biso   1.000  N
  N14      1.0000 0.53420  0.84990  0.43860  Biso   1.000  N
  N15      1.0000 0.67930  0.87150  0.32482  Biso   1.000  N
  N16      1.0000 0.02580  0.80260  0.41245  Biso   1.000  N
  C79      1.0000 0.73760  0.90360  0.44063  Biso   1.000  C
  H91      1.0000 0.71040  0.94950  0.43520  Biso   1.000  H
  C80      1.0000 0.29510  0.70600  0.33734  Biso   1.000  C
  H92      1.0000 0.35130  0.68440  0.32690  Biso   1.000  H
  H93      1.0000 0.27380  0.67690  0.36430  Biso   1.000  H
  C81      1.0000 0.59670  0.86050  0.47774  Biso   1.000  C
  H94      1.0000 0.58190  0.82620  0.50330  Biso   1.000  H
  H95      1.0000 0.59040  0.91080  0.49000  Biso   1.000  H
  C82      1.0000 0.08400  0.73100  0.26898  Biso   1.000  C
  H96      1.0000 0.07950  0.67950  0.25870  Biso   1.000  H
  H97      1.0000 0.10940  0.75960  0.24280  Biso   1.000  H
  C83      1.0000 0.85320  0.74730  0.31741  Biso   1.000  C
  H98      1.0000 0.81360  0.71920  0.33570  Biso   1.000  H
  C84      1.0000 0.88900  0.85840  0.27539  Biso   1.000  C
  H99      1.0000 0.87300  0.90560  0.26450  Biso   1.000  H
  C85      1.0000 0.93370  0.71880  0.30480  Biso   1.000  C
  H100     1.0000 0.94810  0.67020  0.31350  Biso   1.000  H
  C86      1.0000 0.44630  0.87300  0.45506  Biso   1.000  C
  H101     1.0000 0.44890  0.92470  0.46520  Biso   1.000  H
  H102     1.0000 0.42940  0.84310  0.48250  Biso   1.000  H
  C87      1.0000 0.22880  0.70060  0.29769  Biso   1.000  C
  H103     1.0000 0.25300  0.72460  0.26940  Biso   1.000  H
  H104     1.0000 0.21870  0.64850  0.29010  Biso   1.000  H
  C88      1.0000 0.99350  0.75960  0.27984  Biso   1.000  C
  C89      1.0000 0.82330  0.89240  0.42618  Biso   1.000  C
  H105     1.0000 0.85440  0.93030  0.41060  Biso   1.000  H
  C90      1.0000 0.83070  0.81760  0.30298  Biso   1.000  C
  C91      1.0000 0.96990  0.82910  0.26421  Biso   1.000  C
  H106     1.0000 0.00980  0.85660  0.24570  Biso   1.000  H
  C92      1.0000 0.46530  0.76160  0.38404  Biso   1.000  C
  H107     1.0000 0.46300  0.70930  0.37540  Biso   1.000  H
  H108     1.0000 0.48650  0.78920  0.35650  Biso   1.000  H
  C93      1.0000 0.37210  0.78800  0.39681  Biso   1.000  C
  H109     1.0000 0.34780  0.75460  0.42130  Biso   1.000  H
  C94      1.0000 0.69120  0.84830  0.46299  Biso   1.000  C
  C95      1.0000 0.31170  0.78500  0.35366  Biso   1.000  C
  H110     1.0000 0.34050  0.81230  0.32750  Biso   1.000  H
  C96      1.0000 0.22190  0.82030  0.36346  Biso   1.000  C
  H111     1.0000 0.19510  0.79670  0.39120  Biso   1.000  H
  H112     1.0000 0.23040  0.87270  0.37080  Biso   1.000  H
  C97      1.0000 0.16040  0.81320  0.32230  Biso   1.000  C
  H113     1.0000 0.10420  0.83750  0.32980  Biso   1.000  H
  H114     1.0000 0.18630  0.83820  0.29480  Biso   1.000  H
  C98      1.0000 0.86370  0.82530  0.43459  Biso   1.000  C
  C99      1.0000 0.74700  0.84820  0.31525  Biso   1.000  C
  C100     1.0000 0.73260  0.78190  0.47134  Biso   1.000  C
  H115     1.0000 0.70140  0.74420  0.48700  Biso   1.000  H
  C101     1.0000 0.52950  0.77180  0.42434  Biso   1.000  C
  H116     1.0000 0.51050  0.74180  0.45140  Biso   1.000  H
  H117     1.0000 0.58840  0.75480  0.41460  Biso   1.000  H
  C102     1.0000 0.81810  0.76960  0.45727  Biso   1.000  C
  H118     1.0000 0.84540  0.72380  0.46300  Biso   1.000  H
  C103     1.0000 0.37760  0.86480  0.41743  Biso   1.000  C
  H119     1.0000 0.39050  0.89980  0.39190  Biso   1.000  H
  H120     1.0000 0.31970  0.87790  0.43070  Biso   1.000  H
  C104     1.0000 0.95380  0.81320  0.42152  Biso   1.000  C
  Ag9      1.0000 0.92691  0.41673  0.37440  Biso   1.000  Ag
  Ag10     1.0000 0.41591  0.17608  0.37229  Biso   1.000  Ag
  N17      1.0000 0.35650  0.23559  0.31026  Biso   1.000  N
  N18      1.0000 0.96580  0.34990  0.43860  Biso   1.000  N
  N19      1.0000 0.82070  0.37150  0.32482  Biso   1.000  N
  N20      1.0000 0.47420  0.30260  0.41245  Biso   1.000  N
  C105     1.0000 0.76240  0.40360  0.44063  Biso   1.000  C
  H121     1.0000 0.78960  0.44950  0.43520  Biso   1.000  H
  C106     1.0000 0.20490  0.20600  0.33734  Biso   1.000  C
  H122     1.0000 0.14870  0.18440  0.32690  Biso   1.000  H
  H123     1.0000 0.22620  0.17690  0.36430  Biso   1.000  H
  C107     1.0000 0.90330  0.36050  0.47774  Biso   1.000  C
  H124     1.0000 0.91810  0.32620  0.50330  Biso   1.000  H
  H125     1.0000 0.90960  0.41080  0.49000  Biso   1.000  H
  C108     1.0000 0.41600  0.23100  0.26898  Biso   1.000  C
  H126     1.0000 0.42050  0.17950  0.25870  Biso   1.000  H
  H127     1.0000 0.39060  0.25960  0.24280  Biso   1.000  H
  C109     1.0000 0.64680  0.24730  0.31741  Biso   1.000  C
  H128     1.0000 0.68640  0.21920  0.33570  Biso   1.000  H
  C110     1.0000 0.61100  0.35840  0.27539  Biso   1.000  C
  H129     1.0000 0.62700  0.40560  0.26450  Biso   1.000  H
  C111     1.0000 0.56630  0.21880  0.30480  Biso   1.000  C
  H130     1.0000 0.55190  0.17020  0.31350  Biso   1.000  H
  C112     1.0000 0.05370  0.37300  0.45506  Biso   1.000  C
  H131     1.0000 0.05110  0.42470  0.46520  Biso   1.000  H
  H132     1.0000 0.07060  0.34310  0.48250  Biso   1.000  H
  C113     1.0000 0.27120  0.20060  0.29769  Biso   1.000  C
  H133     1.0000 0.24700  0.22460  0.26940  Biso   1.000  H
  H134     1.0000 0.28130  0.14850  0.29010  Biso   1.000  H
  C114     1.0000 0.50650  0.25960  0.27984  Biso   1.000  C
  C115     1.0000 0.67670  0.39240  0.42618  Biso   1.000  C
  H135     1.0000 0.64560  0.43030  0.41060  Biso   1.000  H
  C116     1.0000 0.66930  0.31760  0.30298  Biso   1.000  C
  C117     1.0000 0.53010  0.32910  0.26421  Biso   1.000  C
  H136     1.0000 0.49020  0.35660  0.24570  Biso   1.000  H
  C118     1.0000 0.03470  0.26160  0.38404  Biso   1.000  C
  H137     1.0000 0.03700  0.20930  0.37540  Biso   1.000  H
  H138     1.0000 0.01350  0.28920  0.35650  Biso   1.000  H
  C119     1.0000 0.12790  0.28800  0.39681  Biso   1.000  C
  H139     1.0000 0.15220  0.25460  0.42130  Biso   1.000  H
  C120     1.0000 0.80880  0.34830  0.46299  Biso   1.000  C
  C121     1.0000 0.18830  0.28500  0.35366  Biso   1.000  C
  H140     1.0000 0.15950  0.31230  0.32750  Biso   1.000  H
  C122     1.0000 0.27810  0.32030  0.36346  Biso   1.000  C
  H141     1.0000 0.30490  0.29670  0.39120  Biso   1.000  H
  H142     1.0000 0.26960  0.37270  0.37080  Biso   1.000  H
  C123     1.0000 0.33960  0.31320  0.32230  Biso   1.000  C
  H143     1.0000 0.39580  0.33750  0.32980  Biso   1.000  H
  H144     1.0000 0.31370  0.33820  0.29480  Biso   1.000  H
  C124     1.0000 0.63630  0.32530  0.43459  Biso   1.000  C
  C125     1.0000 0.75300  0.34820  0.31525  Biso   1.000  C
  C126     1.0000 0.76740  0.28190  0.47134  Biso   1.000  C
  H145     1.0000 0.79860  0.24420  0.48700  Biso   1.000  H
  C127     1.0000 0.97050  0.27180  0.42434  Biso   1.000  C
  H146     1.0000 0.98950  0.24180  0.45140  Biso   1.000  H
  H147     1.0000 0.91160  0.25480  0.41460  Biso   1.000  H
  C128     1.0000 0.68190  0.26960  0.45727  Biso   1.000  C
  H148     1.0000 0.65460  0.22380  0.46300  Biso   1.000  H
  C129     1.0000 0.12240  0.36480  0.41743  Biso   1.000  C
  H149     1.0000 0.10950  0.39980  0.39190  Biso   1.000  H
  H150     1.0000 0.18030  0.37790  0.43070  Biso   1.000  H
  C130     1.0000 0.54620  0.31320  0.42152  Biso   1.000  C
  Ag11     1.0000 0.57309  0.58327  0.87440  Biso   1.000  Ag
  Ag12     1.0000 0.08409  0.82392  0.87229  Biso   1.000  Ag
  N21      1.0000 0.14350  0.76441  0.81026  Biso   1.000  N
  N22      1.0000 0.53420  0.65010  0.93860  Biso   1.000  N
  N23      1.0000 0.67930  0.62850  0.82482  Biso   1.000  N
  N24      1.0000 0.02580  0.69740  0.91245  Biso   1.000  N
  C131     1.0000 0.73760  0.59640  0.94063  Biso   1.000  C
  H151     1.0000 0.71040  0.55050  0.93520  Biso   1.000  H
  C132     1.0000 0.29510  0.79400  0.83734  Biso   1.000  C
  H152     1.0000 0.35130  0.81560  0.82690  Biso   1.000  H
  H153     1.0000 0.27380  0.82310  0.86430  Biso   1.000  H
  C133     1.0000 0.59670  0.63950  0.97774  Biso   1.000  C
  H154     1.0000 0.58190  0.67380  0.00330  Biso   1.000  H
  H155     1.0000 0.59040  0.58920  0.99000  Biso   1.000  H
  C134     1.0000 0.08400  0.76900  0.76898  Biso   1.000  C
  H156     1.0000 0.07950  0.82050  0.75870  Biso   1.000  H
  H157     1.0000 0.10940  0.74040  0.74280  Biso   1.000  H
  C135     1.0000 0.85320  0.75270  0.81741  Biso   1.000  C
  H158     1.0000 0.81360  0.78080  0.83570  Biso   1.000  H
  C136     1.0000 0.88900  0.64160  0.77539  Biso   1.000  C
  H159     1.0000 0.87300  0.59440  0.76450  Biso   1.000  H
  C137     1.0000 0.93370  0.78120  0.80480  Biso   1.000  C
  H160     1.0000 0.94810  0.82980  0.81350  Biso   1.000  H
  C138     1.0000 0.44630  0.62700  0.95506  Biso   1.000  C
  H161     1.0000 0.44890  0.57530  0.96520  Biso   1.000  H
  H162     1.0000 0.42940  0.65690  0.98250  Biso   1.000  H
  C139     1.0000 0.22880  0.79940  0.79769  Biso   1.000  C
  H163     1.0000 0.25300  0.77540  0.76940  Biso   1.000  H
  H164     1.0000 0.21870  0.85150  0.79010  Biso   1.000  H
  C140     1.0000 0.99350  0.74040  0.77984  Biso   1.000  C
  C141     1.0000 0.82330  0.60760  0.92618  Biso   1.000  C
  H165     1.0000 0.85440  0.56970  0.91060  Biso   1.000  H
  C142     1.0000 0.83070  0.68240  0.80298  Biso   1.000  C
  C143     1.0000 0.96990  0.67090  0.76421  Biso   1.000  C
  H166     1.0000 0.00980  0.64340  0.74570  Biso   1.000  H
  C144     1.0000 0.46530  0.73840  0.88404  Biso   1.000  C
  H167     1.0000 0.46300  0.79070  0.87540  Biso   1.000  H
  H168     1.0000 0.48650  0.71080  0.85650  Biso   1.000  H
  C145     1.0000 0.37210  0.71200  0.89681  Biso   1.000  C
  H169     1.0000 0.34780  0.74540  0.92130  Biso   1.000  H
  C146     1.0000 0.69120  0.65170  0.96299  Biso   1.000  C
  C147     1.0000 0.31170  0.71500  0.85366  Biso   1.000  C
  H170     1.0000 0.34050  0.68770  0.82750  Biso   1.000  H
  C148     1.0000 0.22190  0.67970  0.86346  Biso   1.000  C
  H171     1.0000 0.19510  0.70330  0.89120  Biso   1.000  H
  H172     1.0000 0.23040  0.62730  0.87080  Biso   1.000  H
  C149     1.0000 0.16040  0.68680  0.82230  Biso   1.000  C
  H173     1.0000 0.10420  0.66250  0.82980  Biso   1.000  H
  H174     1.0000 0.18630  0.66180  0.79480  Biso   1.000  H
  C150     1.0000 0.86370  0.67470  0.93459  Biso   1.000  C
  C151     1.0000 0.74700  0.65180  0.81525  Biso   1.000  C
  C152     1.0000 0.73260  0.71810  0.97134  Biso   1.000  C
  H175     1.0000 0.70140  0.75580  0.98700  Biso   1.000  H
  C153     1.0000 0.52950  0.72820  0.92434  Biso   1.000  C
  H176     1.0000 0.51050  0.75820  0.95140  Biso   1.000  H
  H177     1.0000 0.58840  0.74520  0.91460  Biso   1.000  H
  C154     1.0000 0.81810  0.73040  0.95727  Biso   1.000  C
  H178     1.0000 0.84540  0.77620  0.96300  Biso   1.000  H
  C155     1.0000 0.37760  0.63520  0.91743  Biso   1.000  C
  H179     1.0000 0.39050  0.60020  0.89190  Biso   1.000  H
  H180     1.0000 0.31970  0.62210  0.93070  Biso   1.000  H
  C156     1.0000 0.95380  0.68680  0.92152  Biso   1.000  C
  Ag13     1.0000 0.07309  0.91673  0.12560  Biso   1.000  Ag
  Ag14     1.0000 0.58409  0.67608  0.12771  Biso   1.000  Ag
  N25      1.0000 0.64350  0.73559  0.18974  Biso   1.000  N
  N26      1.0000 0.03420  0.84990  0.06140  Biso   1.000  N
  N27      1.0000 0.17930  0.87150  0.17518  Biso   1.000  N
  N28      1.0000 0.52580  0.80260  0.08755  Biso   1.000  N
  C157     1.0000 0.23760  0.90360  0.05937  Biso   1.000  C
  H181     1.0000 0.21040  0.94950  0.06480  Biso   1.000  H
  C158     1.0000 0.79510  0.70600  0.16266  Biso   1.000  C
  H182     1.0000 0.85130  0.68440  0.17310  Biso   1.000  H
  H183     1.0000 0.77380  0.67690  0.13570  Biso   1.000  H
  C159     1.0000 0.09670  0.86050  0.02226  Biso   1.000  C
  H184     1.0000 0.08190  0.82620  0.99670  Biso   1.000  H
  H185     1.0000 0.09040  0.91080  0.01000  Biso   1.000  H
  C160     1.0000 0.58400  0.73100  0.23102  Biso   1.000  C
  H186     1.0000 0.57950  0.67950  0.24130  Biso   1.000  H
  H187     1.0000 0.60940  0.75960  0.25720  Biso   1.000  H
  C161     1.0000 0.35320  0.74730  0.18259  Biso   1.000  C
  H188     1.0000 0.31360  0.71920  0.16430  Biso   1.000  H
  C162     1.0000 0.38900  0.85840  0.22461  Biso   1.000  C
  H189     1.0000 0.37300  0.90560  0.23550  Biso   1.000  H
  C163     1.0000 0.43370  0.71880  0.19520  Biso   1.000  C
  H190     1.0000 0.44810  0.67020  0.18650  Biso   1.000  H
  C164     1.0000 0.94630  0.87300  0.04494  Biso   1.000  C
  H191     1.0000 0.94890  0.92470  0.03480  Biso   1.000  H
  H192     1.0000 0.92940  0.84310  0.01750  Biso   1.000  H
  C165     1.0000 0.72880  0.70060  0.20231  Biso   1.000  C
  H193     1.0000 0.75300  0.72460  0.23060  Biso   1.000  H
  H194     1.0000 0.71870  0.64850  0.20990  Biso   1.000  H
  C166     1.0000 0.49350  0.75960  0.22016  Biso   1.000  C
  C167     1.0000 0.32330  0.89240  0.07382  Biso   1.000  C
  H195     1.0000 0.35440  0.93030  0.08940  Biso   1.000  H
  C168     1.0000 0.33070  0.81760  0.19702  Biso   1.000  C
  C169     1.0000 0.46990  0.82910  0.23579  Biso   1.000  C
  H196     1.0000 0.50980  0.85660  0.25430  Biso   1.000  H
  C170     1.0000 0.96530  0.76160  0.11596  Biso   1.000  C
  H197     1.0000 0.96300  0.70930  0.12460  Biso   1.000  H
  H198     1.0000 0.98650  0.78920  0.14350  Biso   1.000  H
  C171     1.0000 0.87210  0.78800  0.10319  Biso   1.000  C
  H199     1.0000 0.84780  0.75460  0.07870  Biso   1.000  H
  C172     1.0000 0.19120  0.84830  0.03701  Biso   1.000  C
  C173     1.0000 0.81170  0.78500  0.14634  Biso   1.000  C
  H200     1.0000 0.84050  0.81230  0.17250  Biso   1.000  H
  C174     1.0000 0.72190  0.82030  0.13654  Biso   1.000  C
  H201     1.0000 0.69510  0.79670  0.10880  Biso   1.000  H
  H202     1.0000 0.73040  0.87270  0.12920  Biso   1.000  H
  C175     1.0000 0.66040  0.81320  0.17770  Biso   1.000  C
  H203     1.0000 0.60420  0.83750  0.17020  Biso   1.000  H
  H204     1.0000 0.68630  0.83820  0.20520  Biso   1.000  H
  C176     1.0000 0.36370  0.82530  0.06541  Biso   1.000  C
  C177     1.0000 0.24700  0.84820  0.18475  Biso   1.000  C
  C178     1.0000 0.23260  0.78190  0.02866  Biso   1.000  C
  H205     1.0000 0.20140  0.74420  0.01300  Biso   1.000  H
  C179     1.0000 0.02950  0.77180  0.07566  Biso   1.000  C
  H206     1.0000 0.01050  0.74180  0.04860  Biso   1.000  H
  H207     1.0000 0.08840  0.75480  0.08540  Biso   1.000  H
  C180     1.0000 0.31810  0.76960  0.04273  Biso   1.000  C
  H208     1.0000 0.34540  0.72380  0.03700  Biso   1.000  H
  C181     1.0000 0.87760  0.86480  0.08257  Biso   1.000  C
  H209     1.0000 0.89050  0.89980  0.10810  Biso   1.000  H
  H210     1.0000 0.81970  0.87790  0.06930  Biso   1.000  H
  C182     1.0000 0.45380  0.81320  0.07848  Biso   1.000  C
  Ag15     1.0000 0.42691  0.08327  0.62560  Biso   1.000  Ag
  Ag16     1.0000 0.91591  0.32392  0.62771  Biso   1.000  Ag
  N29      1.0000 0.85650  0.26441  0.68974  Biso   1.000  N
  N30      1.0000 0.46580  0.15010  0.56140  Biso   1.000  N
  N31      1.0000 0.32070  0.12850  0.67518  Biso   1.000  N
  N32      1.0000 0.97420  0.19740  0.58755  Biso   1.000  N
  C183     1.0000 0.26240  0.09640  0.55937  Biso   1.000  C
  H211     1.0000 0.28960  0.05050  0.56480  Biso   1.000  H
  C184     1.0000 0.70490  0.29400  0.66266  Biso   1.000  C
  H212     1.0000 0.64870  0.31560  0.67310  Biso   1.000  H
  H213     1.0000 0.72620  0.32310  0.63570  Biso   1.000  H
  C185     1.0000 0.40330  0.13950  0.52226  Biso   1.000  C
  H214     1.0000 0.41810  0.17380  0.49670  Biso   1.000  H
  H215     1.0000 0.40960  0.08920  0.51000  Biso   1.000  H
  C186     1.0000 0.91600  0.26900  0.73102  Biso   1.000  C
  H216     1.0000 0.92050  0.32050  0.74130  Biso   1.000  H
  H217     1.0000 0.89060  0.24040  0.75720  Biso   1.000  H
  C187     1.0000 0.14680  0.25270  0.68259  Biso   1.000  C
  H218     1.0000 0.18640  0.28080  0.66430  Biso   1.000  H
  C188     1.0000 0.11100  0.14160  0.72461  Biso   1.000  C
  H219     1.0000 0.12700  0.09440  0.73550  Biso   1.000  H
  C189     1.0000 0.06630  0.28120  0.69520  Biso   1.000  C
  H220     1.0000 0.05190  0.32980  0.68650  Biso   1.000  H
  C190     1.0000 0.55370  0.12700  0.54494  Biso   1.000  C
  H221     1.0000 0.55110  0.07530  0.53480  Biso   1.000  H
  H222     1.0000 0.57060  0.15690  0.51750  Biso   1.000  H
  C191     1.0000 0.77120  0.29940  0.70231  Biso   1.000  C
  H223     1.0000 0.74700  0.27540  0.73060  Biso   1.000  H
  H224     1.0000 0.78130  0.35150  0.70990  Biso   1.000  H
  C192     1.0000 0.00650  0.24040  0.72016  Biso   1.000  C
  C193     1.0000 0.17670  0.10760  0.57382  Biso   1.000  C
  H225     1.0000 0.14560  0.06970  0.58940  Biso   1.000  H
  C194     1.0000 0.16930  0.18240  0.69702  Biso   1.000  C
  C195     1.0000 0.03010  0.17090  0.73579  Biso   1.000  C
  H226     1.0000 0.99020  0.14340  0.75430  Biso   1.000  H
  C196     1.0000 0.53470  0.23840  0.61596  Biso   1.000  C
  H227     1.0000 0.53700  0.29070  0.62460  Biso   1.000  H
  H228     1.0000 0.51350  0.21080  0.64350  Biso   1.000  H
  C197     1.0000 0.62790  0.21200  0.60319  Biso   1.000  C
  H229     1.0000 0.65220  0.24540  0.57870  Biso   1.000  H
  C198     1.0000 0.30880  0.15170  0.53701  Biso   1.000  C
  C199     1.0000 0.68830  0.21500  0.64634  Biso   1.000  C
  H230     1.0000 0.65950  0.18770  0.67250  Biso   1.000  H
  C200     1.0000 0.77810  0.17970  0.63654  Biso   1.000  C
  H231     1.0000 0.80490  0.20330  0.60880  Biso   1.000  H
  H232     1.0000 0.76960  0.12730  0.62920  Biso   1.000  H
  C201     1.0000 0.83960  0.18680  0.67770  Biso   1.000  C
  H233     1.0000 0.89580  0.16250  0.67020  Biso   1.000  H
  H234     1.0000 0.81370  0.16180  0.70520  Biso   1.000  H
  C202     1.0000 0.13630  0.17470  0.56541  Biso   1.000  C
  C203     1.0000 0.25300  0.15180  0.68475  Biso   1.000  C
  C204     1.0000 0.26740  0.21810  0.52866  Biso   1.000  C
  H235     1.0000 0.29860  0.25580  0.51300  Biso   1.000  H
  C205     1.0000 0.47050  0.22820  0.57566  Biso   1.000  C
  H236     1.0000 0.48950  0.25820  0.54860  Biso   1.000  H
  H237     1.0000 0.41160  0.24520  0.58540  Biso   1.000  H
  C206     1.0000 0.18190  0.23040  0.54273  Biso   1.000  C
  H238     1.0000 0.15460  0.27620  0.53700  Biso   1.000  H
  C207     1.0000 0.62240  0.13520  0.58257  Biso   1.000  C
  H239     1.0000 0.60950  0.10020  0.60810  Biso   1.000  H
  H240     1.0000 0.68030  0.12210  0.56930  Biso   1.000  H
  C208     1.0000 0.04620  0.18680  0.57848  Biso   1.000  C
