data_image0
_cell_length_a       8.797
_cell_length_b       13.654
_cell_length_c       18.42
_cell_angle_alpha    82.256
_cell_angle_beta     83.828
_cell_angle_gamma    73.186

_symmetry_space_group_name_H-M    "P 1"
_symmetry_int_tables_number       1

loop_
  _symmetry_equiv_pos_as_xyz
  'x, y, z'

loop_
  _atom_site_label
  _atom_site_occupancy
  _atom_site_fract_x
  _atom_site_fract_y
  _atom_site_fract_z
  _atom_site_thermal_displace_type
  _atom_site_B_iso_or_equiv
  _atom_site_type_symbol
  Ag1      1.0000 0.03460  0.09610  0.02120  Biso   1.000  Ag
  Ag2      1.0000 0.94760  0.11530  0.03270  Biso   1.000  Ag
  Ag3      1.0000 0.63521  0.55725  0.84913  Biso   1.000  Ag
  Si1      1.0000 0.84280  0.39520  0.60893  Biso   1.000  Si
  Si2      1.0000 0.51750  0.35681  0.64927  Biso   1.000  Si
  Si3      1.0000 0.67750  0.13720  0.60373  Biso   1.000  Si
  O1       1.0000 0.66390  0.40290  0.64840  Biso   1.000  O
  O2       1.0000 0.57650  0.23650  0.64170  Biso   1.000  O
  O3       1.0000 0.78480  0.16820  0.53460  Biso   1.000  O
  O4       1.0000 0.86380  0.34490  0.53320  Biso   1.000  O
  C1       1.0000 0.86880  0.52300  0.58910  Biso   1.000  C
  H1       1.0000 0.85630  0.55440  0.63500  Biso   1.000  H
  H2       1.0000 0.97550  0.51860  0.56550  Biso   1.000  H
  H3       1.0000 0.78880  0.56520  0.55610  Biso   1.000  H
  C2       1.0000 0.38850  0.42070  0.57260  Biso   1.000  C
  H4       1.0000 0.29940  0.39060  0.57470  Biso   1.000  H
  H5       1.0000 0.34720  0.49450  0.57730  Biso   1.000  H
  H6       1.0000 0.45120  0.41060  0.52550  Biso   1.000  H
  C3       1.0000 0.54330  0.07200  0.57400  Biso   1.000  C
  H7       1.0000 0.60610  0.01110  0.55070  Biso   1.000  H
  H8       1.0000 0.47880  0.05090  0.61670  Biso   1.000  H
  H9       1.0000 0.47320  0.11910  0.53870  Biso   1.000  H
  C4       1.0000 0.10590  0.16590  0.49430  Biso   1.000  C
  H10      1.0000 0.12270  0.10370  0.47000  Biso   1.000  H
  H11      1.0000 0.17270  0.20780  0.46840  Biso   1.000  H
  H12      1.0000 0.13450  0.14660  0.54530  Biso   1.000  H
  C5       1.0000 0.98830  0.31160  0.67270  Biso   1.000  C
  H13      1.0000 0.09760  0.29630  0.65570  Biso   1.000  H
  C6       1.0000 0.95450  0.27240  0.73770  Biso   1.000  C
  H14      1.0000 0.84400  0.28380  0.75110  Biso   1.000  H
  C7       1.0000 0.05800  0.21360  0.79370  Biso   1.000  C
  C8       1.0000 0.00100  0.19430  0.86290  Biso   1.000  C
  H15      1.0000 0.88970  0.21770  0.87470  Biso   1.000  H
  N1       1.0000 0.10600  0.13780  0.92150  Biso   1.000  N
  C9       1.0000 0.25800  0.10510  0.90010  Biso   1.000  C
  H16      1.0000 0.32790  0.06560  0.93590  Biso   1.000  H
  C10      1.0000 0.32300  0.12290  0.83190  Biso   1.000  C
  H17      1.0000 0.43460  0.09890  0.82120  Biso   1.000  H
  C11      1.0000 0.22500  0.17620  0.77830  Biso   1.000  C
  H18      1.0000 0.27010  0.18840  0.72980  Biso   1.000  H
  C12      1.0000 0.40330  0.37120  0.73880  Biso   1.000  C
  H19      1.0000 0.45660  0.34020  0.78180  Biso   1.000  H
  C13      1.0000 0.25660  0.42070  0.74610  Biso   1.000  C
  H20      1.0000 0.21080  0.45730  0.70250  Biso   1.000  H
  C14      1.0000 0.14870  0.42840  0.81330  Biso   1.000  C
  C15      1.0000 0.98720  0.47480  0.80960  Biso   1.000  C
  H21      1.0000 0.95060  0.50370  0.76260  Biso   1.000  H
  N2       1.0000 0.88020  0.48230  0.86560  Biso   1.000  N
  C16      1.0000 0.93530  0.43840  0.93110  Biso   1.000  C
  H22      1.0000 0.86040  0.44140  0.97250  Biso   1.000  H
  C17      1.0000 0.09070  0.39020  0.94210  Biso   1.000  C
  H23      1.0000 0.12330  0.36140  0.98970  Biso   1.000  H
  C18      1.0000 0.20050  0.38430  0.88160  Biso   1.000  C
  H24      1.0000 0.31000  0.35040  0.88710  Biso   1.000  H
  C19      1.0000 0.80930  0.06030  0.68050  Biso   1.000  C
  H25      1.0000 0.75580  0.04850  0.72710  Biso   1.000  H
  C20      1.0000 0.95460  0.02490  0.67640  Biso   1.000  C
  H26      1.0000 0.00740  0.03170  0.62900  Biso   1.000  H
  C21      1.0000 0.05250  0.97490  0.73430  Biso   1.000  C
  C22      1.0000 0.99450  0.96200  0.81010  Biso   1.000  C
  H27      1.0000 0.88390  0.98560  0.82370  Biso   1.000  H
  N3       1.0000 0.10400  0.91390  0.86420  Biso   1.000  N
  C23      1.0000 0.25000  0.88990  0.83970  Biso   1.000  C
  H28      1.0000 0.32340  0.86240  0.87660  Biso   1.000  H
  C24      1.0000 0.31800  0.89700  0.77130  Biso   1.000  C
  H29      1.0000 0.42950  0.87310  0.76030  Biso   1.000  H
  C25      1.0000 0.21270  0.94170  0.71800  Biso   1.000  C
  H30      1.0000 0.25320  0.94970  0.66830  Biso   1.000  H
  Si4      1.0000 0.89610  0.24030  0.49299  Biso   1.000  Si
  C26      1.0000 0.79200  0.27600  0.40370  Biso   1.000  C
  H31      1.0000 0.67920  0.29440  0.40480  Biso   1.000  H
  C27      1.0000 0.87500  0.27500  0.34290  Biso   1.000  C
  H32      1.0000 0.98770  0.25150  0.34270  Biso   1.000  H
  C28      1.0000 0.90100  0.27780  0.39180  Biso   1.000  C
  H33      1.0000 0.99150  0.29150  0.36390  Biso   1.000  H
  C29      1.0000 0.77200  0.28300  0.36330  Biso   1.000  C
  H34      1.0000 0.67780  0.27410  0.38970  Biso   1.000  H
  C30      1.0000 0.79770  0.31050  0.26990  Biso   1.000  C
  C31      1.0000 0.64280  0.35430  0.25100  Biso   1.000  C
  H35      1.0000 0.56020  0.36460  0.28930  Biso   1.000  H
  N4       1.0000 0.60280  0.38330  0.18110  Biso   1.000  N
  C32      1.0000 0.72610  0.36760  0.12880  Biso   1.000  C
  H36      1.0000 0.70220  0.38710  0.07890  Biso   1.000  H
  C33      1.0000 0.88300  0.32520  0.14330  Biso   1.000  C
  H37      1.0000 0.96440  0.31530  0.10440  Biso   1.000  H
  C34      1.0000 0.91990  0.29720  0.21600  Biso   1.000  C
  H38      1.0000 0.02740  0.26950  0.22810  Biso   1.000  H
  Ag4      1.0000 0.96540  0.90390  0.97880  Biso   1.000  Ag
  Ag5      1.0000 0.05240  0.88470  0.96730  Biso   1.000  Ag
  Ag6      1.0000 0.36479  0.44275  0.15087  Biso   1.000  Ag
  Si5      1.0000 0.15720  0.60480  0.39107  Biso   1.000  Si
  Si6      1.0000 0.48250  0.64319  0.35073  Biso   1.000  Si
  Si7      1.0000 0.32250  0.86280  0.39627  Biso   1.000  Si
  O5       1.0000 0.33610  0.59710  0.35160  Biso   1.000  O
  O6       1.0000 0.42350  0.76350  0.35830  Biso   1.000  O
  O7       1.0000 0.21520  0.83180  0.46540  Biso   1.000  O
  O8       1.0000 0.13620  0.65510  0.46680  Biso   1.000  O
  C35      1.0000 0.13120  0.47700  0.41090  Biso   1.000  C
  H39      1.0000 0.14370  0.44560  0.36500  Biso   1.000  H
  H40      1.0000 0.02450  0.48140  0.43450  Biso   1.000  H
  H41      1.0000 0.21120  0.43480  0.44390  Biso   1.000  H
  C36      1.0000 0.61150  0.57930  0.42740  Biso   1.000  C
  H42      1.0000 0.70060  0.60940  0.42530  Biso   1.000  H
  H43      1.0000 0.65280  0.50550  0.42270  Biso   1.000  H
  H44      1.0000 0.54880  0.58940  0.47450  Biso   1.000  H
  C37      1.0000 0.45670  0.92800  0.42600  Biso   1.000  C
  H45      1.0000 0.39390  0.98890  0.44930  Biso   1.000  H
  H46      1.0000 0.52120  0.94910  0.38330  Biso   1.000  H
  H47      1.0000 0.52680  0.88090  0.46130  Biso   1.000  H
  C38      1.0000 0.89410  0.83410  0.50570  Biso   1.000  C
  H48      1.0000 0.87730  0.89630  0.53000  Biso   1.000  H
  H49      1.0000 0.82730  0.79220  0.53160  Biso   1.000  H
  H50      1.0000 0.86550  0.85340  0.45470  Biso   1.000  H
  C39      1.0000 0.01170  0.68840  0.32730  Biso   1.000  C
  H51      1.0000 0.90240  0.70370  0.34430  Biso   1.000  H
  C40      1.0000 0.04550  0.72760  0.26230  Biso   1.000  C
  H52      1.0000 0.15600  0.71620  0.24890  Biso   1.000  H
  C41      1.0000 0.94200  0.78640  0.20630  Biso   1.000  C
  C42      1.0000 0.99900  0.80570  0.13710  Biso   1.000  C
  H53      1.0000 0.11030  0.78230  0.12530  Biso   1.000  H
  N5       1.0000 0.89400  0.86220  0.07850  Biso   1.000  N
  C43      1.0000 0.74200  0.89490  0.09990  Biso   1.000  C
  H54      1.0000 0.67210  0.93440  0.06410  Biso   1.000  H
  C44      1.0000 0.67700  0.87710  0.16810  Biso   1.000  C
  H55      1.0000 0.56540  0.90110  0.17880  Biso   1.000  H
  C45      1.0000 0.77500  0.82380  0.22170  Biso   1.000  C
  H56      1.0000 0.72990  0.81160  0.27020  Biso   1.000  H
  C46      1.0000 0.59670  0.62880  0.26120  Biso   1.000  C
  H57      1.0000 0.54340  0.65980  0.21820  Biso   1.000  H
  C47      1.0000 0.74340  0.57930  0.25390  Biso   1.000  C
  H58      1.0000 0.78920  0.54270  0.29750  Biso   1.000  H
  C48      1.0000 0.85130  0.57160  0.18670  Biso   1.000  C
  C49      1.0000 0.01280  0.52520  0.19040  Biso   1.000  C
  H59      1.0000 0.04940  0.49630  0.23740  Biso   1.000  H
  N6       1.0000 0.11980  0.51770  0.13440  Biso   1.000  N
  C50      1.0000 0.06470  0.56160  0.06890  Biso   1.000  C
  H60      1.0000 0.13960  0.55860  0.02750  Biso   1.000  H
  C51      1.0000 0.90930  0.60980  0.05790  Biso   1.000  C
  H61      1.0000 0.87670  0.63860  0.01030  Biso   1.000  H
  C52      1.0000 0.79950  0.61570  0.11840  Biso   1.000  C
  H62      1.0000 0.69000  0.64960  0.11290  Biso   1.000  H
  C53      1.0000 0.19070  0.93970  0.31950  Biso   1.000  C
  H63      1.0000 0.24420  0.95150  0.27290  Biso   1.000  H
  C54      1.0000 0.04540  0.97510  0.32360  Biso   1.000  C
  H64      1.0000 0.99260  0.96830  0.37100  Biso   1.000  H
  C55      1.0000 0.94750  0.02510  0.26570  Biso   1.000  C
  C56      1.0000 0.00550  0.03800  0.18990  Biso   1.000  C
  H65      1.0000 0.11610  0.01440  0.17630  Biso   1.000  H
  N7       1.0000 0.89600  0.08610  0.13580  Biso   1.000  N
  C57      1.0000 0.75000  0.11010  0.16030  Biso   1.000  C
  H66      1.0000 0.67660  0.13760  0.12340  Biso   1.000  H
  C58      1.0000 0.68200  0.10300  0.22870  Biso   1.000  C
  H67      1.0000 0.57050  0.12690  0.23970  Biso   1.000  H
  C59      1.0000 0.78730  0.05830  0.28200  Biso   1.000  C
  H68      1.0000 0.74680  0.05030  0.33170  Biso   1.000  H
  Si8      1.0000 0.10390  0.75970  0.50701  Biso   1.000  Si
  C60      1.0000 0.20800  0.72400  0.59630  Biso   1.000  C
  H69      1.0000 0.32080  0.70560  0.59520  Biso   1.000  H
  C61      1.0000 0.12500  0.72500  0.65710  Biso   1.000  C
  H70      1.0000 0.01230  0.74850  0.65730  Biso   1.000  H
  C62      1.0000 0.09900  0.72220  0.60820  Biso   1.000  C
  H71      1.0000 0.00850  0.70850  0.63610  Biso   1.000  H
  C63      1.0000 0.22800  0.71700  0.63670  Biso   1.000  C
  H72      1.0000 0.32220  0.72590  0.61030  Biso   1.000  H
  C64      1.0000 0.20230  0.68950  0.73010  Biso   1.000  C
  C65      1.0000 0.35720  0.64570  0.74900  Biso   1.000  C
  H73      1.0000 0.43980  0.63540  0.71070  Biso   1.000  H
  N8       1.0000 0.39720  0.61670  0.81890  Biso   1.000  N
  C66      1.0000 0.27390  0.63240  0.87120  Biso   1.000  C
  H74      1.0000 0.29780  0.61290  0.92110  Biso   1.000  H
  C67      1.0000 0.11700  0.67480  0.85670  Biso   1.000  C
  H75      1.0000 0.03560  0.68470  0.89560  Biso   1.000  H
  C68      1.0000 0.08010  0.70280  0.78400  Biso   1.000  C
  H76      1.0000 0.97260  0.73050  0.77190  Biso   1.000  H
