data_image0
_cell_length_a       22.521
_cell_length_b       13.22
_cell_length_c       24.87
_cell_angle_alpha    90
_cell_angle_beta     90
_cell_angle_gamma    90

_symmetry_space_group_name_H-M    "P 1"
_symmetry_int_tables_number       1

loop_
  _symmetry_equiv_pos_as_xyz
  'x, y, z'

loop_
  _atom_site_label
  _atom_site_occupancy
  _atom_site_fract_x
  _atom_site_fract_y
  _atom_site_fract_z
  _atom_site_thermal_displace_type
  _atom_site_B_iso_or_equiv
  _atom_site_type_symbol
  Cu1      1.0000 0.37966  0.23854  0.53218  Biso   1.000  Cu
  N1       1.0000 0.35018  0.19650  0.46134  Biso   1.000  N
  O1       1.0000 0.43168  0.40030  0.40658  Biso   1.000  O
  O2       1.0000 0.41896  0.34660  0.49082  Biso   1.000  O
  O3       1.0000 0.35876  0.24340  0.37229  Biso   1.000  O
  N2       1.0000 0.34280  0.02500  0.43645  Biso   1.000  N
  N3       1.0000 0.34243  0.14700  0.58484  Biso   1.000  N
  O4       1.0000 0.40251  0.30200  0.68660  Biso   1.000  O
  O5       1.0000 0.40818  0.30800  0.59702  Biso   1.000  O
  H1       1.0000 0.53140  0.60820  0.31930  Biso   1.000  H
  C1       1.0000 0.31386  0.11230  0.44647  Biso   1.000  C
  C2       1.0000 0.30922  0.05630  0.57645  Biso   1.000  C
  O6       1.0000 0.33015  0.13420  0.67691  Biso   1.000  O
  C3       1.0000 0.36969  0.25410  0.42001  Biso   1.000  C
  C4       1.0000 0.41053  0.34210  0.43978  Biso   1.000  C
  C5       1.0000 0.34944  0.17530  0.63603  Biso   1.000  C
  C6       1.0000 0.38984  0.27050  0.64117  Biso   1.000  C
  C7       1.0000 0.24833  0.05300  0.58076  Biso   1.000  C
  H2       1.0000 0.22690  0.11050  0.59020  Biso   1.000  H
  C8       1.0000 0.21959  0.96230  0.57081  Biso   1.000  C
  H3       1.0000 0.17850  0.95800  0.57360  Biso   1.000  H
  C9       1.0000 0.25242  0.12140  0.44317  Biso   1.000  C
  H4       1.0000 0.23390  0.18280  0.45030  Biso   1.000  H
  Cu2      1.0000 0.37966  0.76146  0.46782  Biso   1.000  Cu
  N4       1.0000 0.35018  0.80350  0.53866  Biso   1.000  N
  O7       1.0000 0.43168  0.59970  0.59342  Biso   1.000  O
  O8       1.0000 0.41896  0.65340  0.50918  Biso   1.000  O
  O9       1.0000 0.35876  0.75660  0.62771  Biso   1.000  O
  N5       1.0000 0.34280  0.97500  0.56355  Biso   1.000  N
  N6       1.0000 0.34243  0.85300  0.41516  Biso   1.000  N
  O10      1.0000 0.40251  0.69800  0.31340  Biso   1.000  O
  O11      1.0000 0.40818  0.69200  0.40298  Biso   1.000  O
  H5       1.0000 0.53140  0.39180  0.68070  Biso   1.000  H
  C10      1.0000 0.31386  0.88770  0.55353  Biso   1.000  C
  C11      1.0000 0.30922  0.94370  0.42355  Biso   1.000  C
  O12      1.0000 0.33015  0.86580  0.32309  Biso   1.000  O
  C12      1.0000 0.36969  0.74590  0.57999  Biso   1.000  C
  C13      1.0000 0.41053  0.65790  0.56022  Biso   1.000  C
  C14      1.0000 0.34944  0.82470  0.36397  Biso   1.000  C
  C15      1.0000 0.38984  0.72950  0.35883  Biso   1.000  C
  C16      1.0000 0.24833  0.94700  0.41924  Biso   1.000  C
  H6       1.0000 0.22690  0.88950  0.40980  Biso   1.000  H
  C17      1.0000 0.21959  0.03770  0.42919  Biso   1.000  C
  H7       1.0000 0.17850  0.04200  0.42640  Biso   1.000  H
  C18      1.0000 0.25242  0.87860  0.55683  Biso   1.000  C
  H8       1.0000 0.23390  0.81720  0.54970  Biso   1.000  H
  Cu3      1.0000 0.62034  0.76146  0.46782  Biso   1.000  Cu
  N7       1.0000 0.64982  0.80350  0.53866  Biso   1.000  N
  O13      1.0000 0.56832  0.59970  0.59342  Biso   1.000  O
  O14      1.0000 0.58104  0.65340  0.50918  Biso   1.000  O
  O15      1.0000 0.64124  0.75660  0.62771  Biso   1.000  O
  N8       1.0000 0.65720  0.97500  0.56355  Biso   1.000  N
  N9       1.0000 0.65757  0.85300  0.41516  Biso   1.000  N
  O16      1.0000 0.59749  0.69800  0.31340  Biso   1.000  O
  O17      1.0000 0.59182  0.69200  0.40298  Biso   1.000  O
  H9       1.0000 0.46860  0.39180  0.68070  Biso   1.000  H
  C19      1.0000 0.68614  0.88770  0.55353  Biso   1.000  C
  C20      1.0000 0.69078  0.94370  0.42355  Biso   1.000  C
  O18      1.0000 0.66985  0.86580  0.32309  Biso   1.000  O
  C21      1.0000 0.63031  0.74590  0.57999  Biso   1.000  C
  C22      1.0000 0.58947  0.65790  0.56022  Biso   1.000  C
  C23      1.0000 0.65056  0.82470  0.36397  Biso   1.000  C
  C24      1.0000 0.61016  0.72950  0.35883  Biso   1.000  C
  C25      1.0000 0.75167  0.94700  0.41924  Biso   1.000  C
  H10      1.0000 0.77310  0.88950  0.40980  Biso   1.000  H
  C26      1.0000 0.78041  0.03770  0.42919  Biso   1.000  C
  H11      1.0000 0.82150  0.04200  0.42640  Biso   1.000  H
  C27      1.0000 0.74758  0.87860  0.55683  Biso   1.000  C
  H12      1.0000 0.76610  0.81720  0.54970  Biso   1.000  H
  Cu4      1.0000 0.62034  0.23854  0.53218  Biso   1.000  Cu
  N10      1.0000 0.64982  0.19650  0.46134  Biso   1.000  N
  O19      1.0000 0.56832  0.40030  0.40658  Biso   1.000  O
  O20      1.0000 0.58104  0.34660  0.49082  Biso   1.000  O
  O21      1.0000 0.64124  0.24340  0.37229  Biso   1.000  O
  N11      1.0000 0.65720  0.02500  0.43645  Biso   1.000  N
  N12      1.0000 0.65757  0.14700  0.58484  Biso   1.000  N
  O22      1.0000 0.59749  0.30200  0.68660  Biso   1.000  O
  O23      1.0000 0.59182  0.30800  0.59702  Biso   1.000  O
  H13      1.0000 0.46860  0.60820  0.31930  Biso   1.000  H
  C28      1.0000 0.68614  0.11230  0.44647  Biso   1.000  C
  C29      1.0000 0.69078  0.05630  0.57645  Biso   1.000  C
  O24      1.0000 0.66985  0.13420  0.67691  Biso   1.000  O
  C30      1.0000 0.63031  0.25410  0.42001  Biso   1.000  C
  C31      1.0000 0.58947  0.34210  0.43978  Biso   1.000  C
  C32      1.0000 0.65056  0.17530  0.63603  Biso   1.000  C
  C33      1.0000 0.61016  0.27050  0.64117  Biso   1.000  C
  C34      1.0000 0.75167  0.05300  0.58076  Biso   1.000  C
  H14      1.0000 0.77310  0.11050  0.59020  Biso   1.000  H
  C35      1.0000 0.78041  0.96230  0.57081  Biso   1.000  C
  H15      1.0000 0.82150  0.95800  0.57360  Biso   1.000  H
  C36      1.0000 0.74758  0.12140  0.44317  Biso   1.000  C
  H16      1.0000 0.76610  0.18280  0.45030  Biso   1.000  H
  Na1      1.0000 0.50000  0.39605  0.33129  Biso   1.000  Na
  O25      1.0000 0.50000  0.56570  0.32193  Biso   1.000  O
  K1       1.0000 0.50000  0.56811  0.43681  Biso   1.000  K
  Na2      1.0000 0.50000  0.60395  0.66871  Biso   1.000  Na
  O26      1.0000 0.50000  0.43430  0.67807  Biso   1.000  O
  K2       1.0000 0.50000  0.43189  0.56319  Biso   1.000  K
  Cu5      1.0000 0.87966  0.73854  0.53218  Biso   1.000  Cu
  N13      1.0000 0.85018  0.69650  0.46134  Biso   1.000  N
  O27      1.0000 0.93168  0.90030  0.40658  Biso   1.000  O
  O28      1.0000 0.91896  0.84660  0.49082  Biso   1.000  O
  O29      1.0000 0.85876  0.74340  0.37229  Biso   1.000  O
  N14      1.0000 0.84280  0.52500  0.43645  Biso   1.000  N
  N15      1.0000 0.84243  0.64700  0.58484  Biso   1.000  N
  O30      1.0000 0.90251  0.80200  0.68660  Biso   1.000  O
  O31      1.0000 0.90818  0.80800  0.59702  Biso   1.000  O
  H17      1.0000 0.03140  0.10820  0.31930  Biso   1.000  H
  C37      1.0000 0.81386  0.61230  0.44647  Biso   1.000  C
  C38      1.0000 0.80922  0.55630  0.57645  Biso   1.000  C
  O32      1.0000 0.83015  0.63420  0.67691  Biso   1.000  O
  C39      1.0000 0.86969  0.75410  0.42001  Biso   1.000  C
  C40      1.0000 0.91053  0.84210  0.43978  Biso   1.000  C
  C41      1.0000 0.84944  0.67530  0.63603  Biso   1.000  C
  C42      1.0000 0.88984  0.77050  0.64117  Biso   1.000  C
  C43      1.0000 0.74833  0.55300  0.58076  Biso   1.000  C
  H18      1.0000 0.72690  0.61050  0.59020  Biso   1.000  H
  C44      1.0000 0.71959  0.46230  0.57081  Biso   1.000  C
  H19      1.0000 0.67850  0.45800  0.57360  Biso   1.000  H
  C45      1.0000 0.75242  0.62140  0.44317  Biso   1.000  C
  H20      1.0000 0.73390  0.68280  0.45030  Biso   1.000  H
  Cu6      1.0000 0.87966  0.26146  0.46782  Biso   1.000  Cu
  N16      1.0000 0.85018  0.30350  0.53866  Biso   1.000  N
  O33      1.0000 0.93168  0.09970  0.59342  Biso   1.000  O
  O34      1.0000 0.91896  0.15340  0.50918  Biso   1.000  O
  O35      1.0000 0.85876  0.25660  0.62771  Biso   1.000  O
  N17      1.0000 0.84280  0.47500  0.56355  Biso   1.000  N
  N18      1.0000 0.84243  0.35300  0.41516  Biso   1.000  N
  O36      1.0000 0.90251  0.19800  0.31340  Biso   1.000  O
  O37      1.0000 0.90818  0.19200  0.40298  Biso   1.000  O
  H21      1.0000 0.03140  0.89180  0.68070  Biso   1.000  H
  C46      1.0000 0.81386  0.38770  0.55353  Biso   1.000  C
  C47      1.0000 0.80922  0.44370  0.42355  Biso   1.000  C
  O38      1.0000 0.83015  0.36580  0.32309  Biso   1.000  O
  C48      1.0000 0.86969  0.24590  0.57999  Biso   1.000  C
  C49      1.0000 0.91053  0.15790  0.56022  Biso   1.000  C
  C50      1.0000 0.84944  0.32470  0.36397  Biso   1.000  C
  C51      1.0000 0.88984  0.22950  0.35883  Biso   1.000  C
  C52      1.0000 0.74833  0.44700  0.41924  Biso   1.000  C
  H22      1.0000 0.72690  0.38950  0.40980  Biso   1.000  H
  C53      1.0000 0.71959  0.53770  0.42919  Biso   1.000  C
  H23      1.0000 0.67850  0.54200  0.42640  Biso   1.000  H
  C54      1.0000 0.75242  0.37860  0.55683  Biso   1.000  C
  H24      1.0000 0.73390  0.31720  0.54970  Biso   1.000  H
  Cu7      1.0000 0.12034  0.26146  0.46782  Biso   1.000  Cu
  N19      1.0000 0.14982  0.30350  0.53866  Biso   1.000  N
  O39      1.0000 0.06832  0.09970  0.59342  Biso   1.000  O
  O40      1.0000 0.08104  0.15340  0.50918  Biso   1.000  O
  O41      1.0000 0.14124  0.25660  0.62771  Biso   1.000  O
  N20      1.0000 0.15720  0.47500  0.56355  Biso   1.000  N
  N21      1.0000 0.15757  0.35300  0.41516  Biso   1.000  N
  O42      1.0000 0.09749  0.19800  0.31340  Biso   1.000  O
  O43      1.0000 0.09182  0.19200  0.40298  Biso   1.000  O
  H25      1.0000 0.96860  0.89180  0.68070  Biso   1.000  H
  C55      1.0000 0.18614  0.38770  0.55353  Biso   1.000  C
  C56      1.0000 0.19078  0.44370  0.42355  Biso   1.000  C
  O44      1.0000 0.16985  0.36580  0.32309  Biso   1.000  O
  C57      1.0000 0.13031  0.24590  0.57999  Biso   1.000  C
  C58      1.0000 0.08947  0.15790  0.56022  Biso   1.000  C
  C59      1.0000 0.15056  0.32470  0.36397  Biso   1.000  C
  C60      1.0000 0.11016  0.22950  0.35883  Biso   1.000  C
  C61      1.0000 0.25167  0.44700  0.41924  Biso   1.000  C
  H26      1.0000 0.27310  0.38950  0.40980  Biso   1.000  H
  C62      1.0000 0.28041  0.53770  0.42919  Biso   1.000  C
  H27      1.0000 0.32150  0.54200  0.42640  Biso   1.000  H
  C63      1.0000 0.24758  0.37860  0.55683  Biso   1.000  C
  H28      1.0000 0.26610  0.31720  0.54970  Biso   1.000  H
  Cu8      1.0000 0.12034  0.73854  0.53218  Biso   1.000  Cu
  N22      1.0000 0.14982  0.69650  0.46134  Biso   1.000  N
  O45      1.0000 0.06832  0.90030  0.40658  Biso   1.000  O
  O46      1.0000 0.08104  0.84660  0.49082  Biso   1.000  O
  O47      1.0000 0.14124  0.74340  0.37229  Biso   1.000  O
  N23      1.0000 0.15720  0.52500  0.43645  Biso   1.000  N
  N24      1.0000 0.15757  0.64700  0.58484  Biso   1.000  N
  O48      1.0000 0.09749  0.80200  0.68660  Biso   1.000  O
  O49      1.0000 0.09182  0.80800  0.59702  Biso   1.000  O
  H29      1.0000 0.96860  0.10820  0.31930  Biso   1.000  H
  C64      1.0000 0.18614  0.61230  0.44647  Biso   1.000  C
  C65      1.0000 0.19078  0.55630  0.57645  Biso   1.000  C
  O50      1.0000 0.16985  0.63420  0.67691  Biso   1.000  O
  C66      1.0000 0.13031  0.75410  0.42001  Biso   1.000  C
  C67      1.0000 0.08947  0.84210  0.43978  Biso   1.000  C
  C68      1.0000 0.15056  0.67530  0.63603  Biso   1.000  C
  C69      1.0000 0.11016  0.77050  0.64117  Biso   1.000  C
  C70      1.0000 0.25167  0.55300  0.58076  Biso   1.000  C
  H30      1.0000 0.27310  0.61050  0.59020  Biso   1.000  H
  C71      1.0000 0.28041  0.46230  0.57081  Biso   1.000  C
  H31      1.0000 0.32150  0.45800  0.57360  Biso   1.000  H
  C72      1.0000 0.24758  0.62140  0.44317  Biso   1.000  C
  H32      1.0000 0.26610  0.68280  0.45030  Biso   1.000  H
  Na3      1.0000 0.00000  0.89605  0.33129  Biso   1.000  Na
  O51      1.0000 0.00000  0.06570  0.32193  Biso   1.000  O
  K3       1.0000 0.00000  0.06811  0.43681  Biso   1.000  K
  Na4      1.0000 0.00000  0.10395  0.66871  Biso   1.000  Na
  O52      1.0000 0.00000  0.93430  0.67807  Biso   1.000  O
  K4       1.0000 0.00000  0.93189  0.56319  Biso   1.000  K
  Cu9      1.0000 0.62034  0.26146  0.03218  Biso   1.000  Cu
  N25      1.0000 0.64982  0.30350  0.96134  Biso   1.000  N
  O53      1.0000 0.56832  0.09970  0.90658  Biso   1.000  O
  O54      1.0000 0.58104  0.15340  0.99082  Biso   1.000  O
  O55      1.0000 0.64124  0.25660  0.87229  Biso   1.000  O
  N26      1.0000 0.65720  0.47500  0.93645  Biso   1.000  N
  N27      1.0000 0.65757  0.35300  0.08484  Biso   1.000  N
  O56      1.0000 0.59749  0.19800  0.18660  Biso   1.000  O
  O57      1.0000 0.59182  0.19200  0.09702  Biso   1.000  O
  H33      1.0000 0.46860  0.89180  0.81930  Biso   1.000  H
  C73      1.0000 0.68614  0.38770  0.94647  Biso   1.000  C
  C74      1.0000 0.69078  0.44370  0.07645  Biso   1.000  C
  O58      1.0000 0.66985  0.36580  0.17691  Biso   1.000  O
  C75      1.0000 0.63031  0.24590  0.92001  Biso   1.000  C
  C76      1.0000 0.58947  0.15790  0.93978  Biso   1.000  C
  C77      1.0000 0.65056  0.32470  0.13603  Biso   1.000  C
  C78      1.0000 0.61016  0.22950  0.14117  Biso   1.000  C
  C79      1.0000 0.75167  0.44700  0.08076  Biso   1.000  C
  H34      1.0000 0.77310  0.38950  0.09020  Biso   1.000  H
  C80      1.0000 0.78041  0.53770  0.07081  Biso   1.000  C
  H35      1.0000 0.82150  0.54200  0.07360  Biso   1.000  H
  C81      1.0000 0.74758  0.37860  0.94317  Biso   1.000  C
  H36      1.0000 0.76610  0.31720  0.95030  Biso   1.000  H
  Cu10     1.0000 0.62034  0.73854  0.96782  Biso   1.000  Cu
  N28      1.0000 0.64982  0.69650  0.03866  Biso   1.000  N
  O59      1.0000 0.56832  0.90030  0.09342  Biso   1.000  O
  O60      1.0000 0.58104  0.84660  0.00918  Biso   1.000  O
  O61      1.0000 0.64124  0.74340  0.12771  Biso   1.000  O
  N29      1.0000 0.65720  0.52500  0.06355  Biso   1.000  N
  N30      1.0000 0.65757  0.64700  0.91516  Biso   1.000  N
  O62      1.0000 0.59749  0.80200  0.81340  Biso   1.000  O
  O63      1.0000 0.59182  0.80800  0.90298  Biso   1.000  O
  H37      1.0000 0.46860  0.10820  0.18070  Biso   1.000  H
  C82      1.0000 0.68614  0.61230  0.05353  Biso   1.000  C
  C83      1.0000 0.69078  0.55630  0.92355  Biso   1.000  C
  O64      1.0000 0.66985  0.63420  0.82309  Biso   1.000  O
  C84      1.0000 0.63031  0.75410  0.07999  Biso   1.000  C
  C85      1.0000 0.58947  0.84210  0.06022  Biso   1.000  C
  C86      1.0000 0.65056  0.67530  0.86397  Biso   1.000  C
  C87      1.0000 0.61016  0.77050  0.85883  Biso   1.000  C
  C88      1.0000 0.75167  0.55300  0.91924  Biso   1.000  C
  H38      1.0000 0.77310  0.61050  0.90980  Biso   1.000  H
  C89      1.0000 0.78041  0.46230  0.92919  Biso   1.000  C
  H39      1.0000 0.82150  0.45800  0.92640  Biso   1.000  H
  C90      1.0000 0.74758  0.62140  0.05683  Biso   1.000  C
  H40      1.0000 0.76610  0.68280  0.04970  Biso   1.000  H
  Cu11     1.0000 0.37966  0.73854  0.96782  Biso   1.000  Cu
  N31      1.0000 0.35018  0.69650  0.03866  Biso   1.000  N
  O65      1.0000 0.43168  0.90030  0.09342  Biso   1.000  O
  O66      1.0000 0.41896  0.84660  0.00918  Biso   1.000  O
  O67      1.0000 0.35876  0.74340  0.12771  Biso   1.000  O
  N32      1.0000 0.34280  0.52500  0.06355  Biso   1.000  N
  N33      1.0000 0.34243  0.64700  0.91516  Biso   1.000  N
  O68      1.0000 0.40251  0.80200  0.81340  Biso   1.000  O
  O69      1.0000 0.40818  0.80800  0.90298  Biso   1.000  O
  H41      1.0000 0.53140  0.10820  0.18070  Biso   1.000  H
  C91      1.0000 0.31386  0.61230  0.05353  Biso   1.000  C
  C92      1.0000 0.30922  0.55630  0.92355  Biso   1.000  C
  O70      1.0000 0.33015  0.63420  0.82309  Biso   1.000  O
  C93      1.0000 0.36969  0.75410  0.07999  Biso   1.000  C
  C94      1.0000 0.41053  0.84210  0.06022  Biso   1.000  C
  C95      1.0000 0.34944  0.67530  0.86397  Biso   1.000  C
  C96      1.0000 0.38984  0.77050  0.85883  Biso   1.000  C
  C97      1.0000 0.24833  0.55300  0.91924  Biso   1.000  C
  H42      1.0000 0.22690  0.61050  0.90980  Biso   1.000  H
  C98      1.0000 0.21959  0.46230  0.92919  Biso   1.000  C
  H43      1.0000 0.17850  0.45800  0.92640  Biso   1.000  H
  C99      1.0000 0.25242  0.62140  0.05683  Biso   1.000  C
  H44      1.0000 0.23390  0.68280  0.04970  Biso   1.000  H
  Cu12     1.0000 0.37966  0.26146  0.03218  Biso   1.000  Cu
  N34      1.0000 0.35018  0.30350  0.96134  Biso   1.000  N
  O71      1.0000 0.43168  0.09970  0.90658  Biso   1.000  O
  O72      1.0000 0.41896  0.15340  0.99082  Biso   1.000  O
  O73      1.0000 0.35876  0.25660  0.87229  Biso   1.000  O
  N35      1.0000 0.34280  0.47500  0.93645  Biso   1.000  N
  N36      1.0000 0.34243  0.35300  0.08484  Biso   1.000  N
  O74      1.0000 0.40251  0.19800  0.18660  Biso   1.000  O
  O75      1.0000 0.40818  0.19200  0.09702  Biso   1.000  O
  H45      1.0000 0.53140  0.89180  0.81930  Biso   1.000  H
  C100     1.0000 0.31386  0.38770  0.94647  Biso   1.000  C
  C101     1.0000 0.30922  0.44370  0.07645  Biso   1.000  C
  O76      1.0000 0.33015  0.36580  0.17691  Biso   1.000  O
  C102     1.0000 0.36969  0.24590  0.92001  Biso   1.000  C
  C103     1.0000 0.41053  0.15790  0.93978  Biso   1.000  C
  C104     1.0000 0.34944  0.32470  0.13603  Biso   1.000  C
  C105     1.0000 0.38984  0.22950  0.14117  Biso   1.000  C
  C106     1.0000 0.24833  0.44700  0.08076  Biso   1.000  C
  H46      1.0000 0.22690  0.38950  0.09020  Biso   1.000  H
  C107     1.0000 0.21959  0.53770  0.07081  Biso   1.000  C
  H47      1.0000 0.17850  0.54200  0.07360  Biso   1.000  H
  C108     1.0000 0.25242  0.37860  0.94317  Biso   1.000  C
  H48      1.0000 0.23390  0.31720  0.95030  Biso   1.000  H
  Na5      1.0000 0.50000  0.10395  0.83129  Biso   1.000  Na
  O77      1.0000 0.50000  0.93430  0.82193  Biso   1.000  O
  K5       1.0000 0.50000  0.93189  0.93681  Biso   1.000  K
  Na6      1.0000 0.50000  0.89605  0.16871  Biso   1.000  Na
  O78      1.0000 0.50000  0.06570  0.17807  Biso   1.000  O
  K6       1.0000 0.50000  0.06811  0.06319  Biso   1.000  K
  Cu13     1.0000 0.12034  0.76146  0.03218  Biso   1.000  Cu
  N37      1.0000 0.14982  0.80350  0.96134  Biso   1.000  N
  O79      1.0000 0.06832  0.59970  0.90658  Biso   1.000  O
  O80      1.0000 0.08104  0.65340  0.99082  Biso   1.000  O
  O81      1.0000 0.14124  0.75660  0.87229  Biso   1.000  O
  N38      1.0000 0.15720  0.97500  0.93645  Biso   1.000  N
  N39      1.0000 0.15757  0.85300  0.08484  Biso   1.000  N
  O82      1.0000 0.09749  0.69800  0.18660  Biso   1.000  O
  O83      1.0000 0.09182  0.69200  0.09702  Biso   1.000  O
  H49      1.0000 0.96860  0.39180  0.81930  Biso   1.000  H
  C109     1.0000 0.18614  0.88770  0.94647  Biso   1.000  C
  C110     1.0000 0.19078  0.94370  0.07645  Biso   1.000  C
  O84      1.0000 0.16985  0.86580  0.17691  Biso   1.000  O
  C111     1.0000 0.13031  0.74590  0.92001  Biso   1.000  C
  C112     1.0000 0.08947  0.65790  0.93978  Biso   1.000  C
  C113     1.0000 0.15056  0.82470  0.13603  Biso   1.000  C
  C114     1.0000 0.11016  0.72950  0.14117  Biso   1.000  C
  C115     1.0000 0.25167  0.94700  0.08076  Biso   1.000  C
  H50      1.0000 0.27310  0.88950  0.09020  Biso   1.000  H
  C116     1.0000 0.28041  0.03770  0.07081  Biso   1.000  C
  H51      1.0000 0.32150  0.04200  0.07360  Biso   1.000  H
  C117     1.0000 0.24758  0.87860  0.94317  Biso   1.000  C
  H52      1.0000 0.26610  0.81720  0.95030  Biso   1.000  H
  Cu14     1.0000 0.12034  0.23854  0.96782  Biso   1.000  Cu
  N40      1.0000 0.14982  0.19650  0.03866  Biso   1.000  N
  O85      1.0000 0.06832  0.40030  0.09342  Biso   1.000  O
  O86      1.0000 0.08104  0.34660  0.00918  Biso   1.000  O
  O87      1.0000 0.14124  0.24340  0.12771  Biso   1.000  O
  N41      1.0000 0.15720  0.02500  0.06355  Biso   1.000  N
  N42      1.0000 0.15757  0.14700  0.91516  Biso   1.000  N
  O88      1.0000 0.09749  0.30200  0.81340  Biso   1.000  O
  O89      1.0000 0.09182  0.30800  0.90298  Biso   1.000  O
  H53      1.0000 0.96860  0.60820  0.18070  Biso   1.000  H
  C118     1.0000 0.18614  0.11230  0.05353  Biso   1.000  C
  C119     1.0000 0.19078  0.05630  0.92355  Biso   1.000  C
  O90      1.0000 0.16985  0.13420  0.82309  Biso   1.000  O
  C120     1.0000 0.13031  0.25410  0.07999  Biso   1.000  C
  C121     1.0000 0.08947  0.34210  0.06022  Biso   1.000  C
  C122     1.0000 0.15056  0.17530  0.86397  Biso   1.000  C
  C123     1.0000 0.11016  0.27050  0.85883  Biso   1.000  C
  C124     1.0000 0.25167  0.05300  0.91924  Biso   1.000  C
  H54      1.0000 0.27310  0.11050  0.90980  Biso   1.000  H
  C125     1.0000 0.28041  0.96230  0.92919  Biso   1.000  C
  H55      1.0000 0.32150  0.95800  0.92640  Biso   1.000  H
  C126     1.0000 0.24758  0.12140  0.05683  Biso   1.000  C
  H56      1.0000 0.26610  0.18280  0.04970  Biso   1.000  H
  Cu15     1.0000 0.87966  0.23854  0.96782  Biso   1.000  Cu
  N43      1.0000 0.85018  0.19650  0.03866  Biso   1.000  N
  O91      1.0000 0.93168  0.40030  0.09342  Biso   1.000  O
  O92      1.0000 0.91896  0.34660  0.00918  Biso   1.000  O
  O93      1.0000 0.85876  0.24340  0.12771  Biso   1.000  O
  N44      1.0000 0.84280  0.02500  0.06355  Biso   1.000  N
  N45      1.0000 0.84243  0.14700  0.91516  Biso   1.000  N
  O94      1.0000 0.90251  0.30200  0.81340  Biso   1.000  O
  O95      1.0000 0.90818  0.30800  0.90298  Biso   1.000  O
  H57      1.0000 0.03140  0.60820  0.18070  Biso   1.000  H
  C127     1.0000 0.81386  0.11230  0.05353  Biso   1.000  C
  C128     1.0000 0.80922  0.05630  0.92355  Biso   1.000  C
  O96      1.0000 0.83015  0.13420  0.82309  Biso   1.000  O
  C129     1.0000 0.86969  0.25410  0.07999  Biso   1.000  C
  C130     1.0000 0.91053  0.34210  0.06022  Biso   1.000  C
  C131     1.0000 0.84944  0.17530  0.86397  Biso   1.000  C
  C132     1.0000 0.88984  0.27050  0.85883  Biso   1.000  C
  C133     1.0000 0.74833  0.05300  0.91924  Biso   1.000  C
  H58      1.0000 0.72690  0.11050  0.90980  Biso   1.000  H
  C134     1.0000 0.71959  0.96230  0.92919  Biso   1.000  C
  H59      1.0000 0.67850  0.95800  0.92640  Biso   1.000  H
  C135     1.0000 0.75242  0.12140  0.05683  Biso   1.000  C
  H60      1.0000 0.73390  0.18280  0.04970  Biso   1.000  H
  Cu16     1.0000 0.87966  0.76146  0.03218  Biso   1.000  Cu
  N46      1.0000 0.85018  0.80350  0.96134  Biso   1.000  N
  O97      1.0000 0.93168  0.59970  0.90658  Biso   1.000  O
  O98      1.0000 0.91896  0.65340  0.99082  Biso   1.000  O
  O99      1.0000 0.85876  0.75660  0.87229  Biso   1.000  O
  N47      1.0000 0.84280  0.97500  0.93645  Biso   1.000  N
  N48      1.0000 0.84243  0.85300  0.08484  Biso   1.000  N
  O100     1.0000 0.90251  0.69800  0.18660  Biso   1.000  O
  O101     1.0000 0.90818  0.69200  0.09702  Biso   1.000  O
  H61      1.0000 0.03140  0.39180  0.81930  Biso   1.000  H
  C136     1.0000 0.81386  0.88770  0.94647  Biso   1.000  C
  C137     1.0000 0.80922  0.94370  0.07645  Biso   1.000  C
  O102     1.0000 0.83015  0.86580  0.17691  Biso   1.000  O
  C138     1.0000 0.86969  0.74590  0.92001  Biso   1.000  C
  C139     1.0000 0.91053  0.65790  0.93978  Biso   1.000  C
  C140     1.0000 0.84944  0.82470  0.13603  Biso   1.000  C
  C141     1.0000 0.88984  0.72950  0.14117  Biso   1.000  C
  C142     1.0000 0.74833  0.94700  0.08076  Biso   1.000  C
  H62      1.0000 0.72690  0.88950  0.09020  Biso   1.000  H
  C143     1.0000 0.71959  0.03770  0.07081  Biso   1.000  C
  H63      1.0000 0.67850  0.04200  0.07360  Biso   1.000  H
  C144     1.0000 0.75242  0.87860  0.94317  Biso   1.000  C
  H64      1.0000 0.73390  0.81720  0.95030  Biso   1.000  H
  Na7      1.0000 0.00000  0.60395  0.83129  Biso   1.000  Na
  O103     1.0000 0.00000  0.43430  0.82193  Biso   1.000  O
  K7       1.0000 0.00000  0.43189  0.93681  Biso   1.000  K
  Na8      1.0000 0.00000  0.39605  0.16871  Biso   1.000  Na
  O104     1.0000 0.00000  0.56570  0.17807  Biso   1.000  O
  K8       1.0000 0.00000  0.56811  0.06319  Biso   1.000  K
