data_image0
_cell_length_a       16.359
_cell_length_b       16.504
_cell_length_c       32.228
_cell_angle_alpha    79.278
_cell_angle_beta     77.959
_cell_angle_gamma    62.972

_symmetry_space_group_name_H-M    "P 1"
_symmetry_int_tables_number       1

loop_
  _symmetry_equiv_pos_as_xyz
  'x, y, z'

loop_
  _atom_site_label
  _atom_site_occupancy
  _atom_site_fract_x
  _atom_site_fract_y
  _atom_site_fract_z
  _atom_site_thermal_displace_type
  _atom_site_B_iso_or_equiv
  _atom_site_type_symbol
  Co1      1.0000 0.02931  0.50347  0.90686  Biso   1.000  Co
  Co2      1.0000 0.90462  0.57571  0.84061  Biso   1.000  Co
  O1       1.0000 0.08540  0.39880  0.99200  Biso   1.000  O
  O2       1.0000 0.12390  0.52960  0.97210  Biso   1.000  O
  O3       1.0000 0.21930  0.39100  0.93600  Biso   1.000  O
  O4       1.0000 0.73720  0.59780  0.80570  Biso   1.000  O
  O5       1.0000 0.77010  0.73230  0.78690  Biso   1.000  O
  O6       1.0000 0.86830  0.59400  0.75020  Biso   1.000  O
  O7       1.0000 0.91170  0.49270  0.89900  Biso   1.000  O
  O8       1.0000 0.94240  0.63480  0.88130  Biso   1.000  O
  O9       1.0000 0.04810  0.49630  0.84040  Biso   1.000  O
  O10      1.0000 0.42100  0.20420  0.12610  Biso   1.000  O
  O11      1.0000 0.48090  0.30500  0.10210  Biso   1.000  O
  O12      1.0000 0.46390  0.76870  0.64310  Biso   1.000  O
  O13      1.0000 0.56350  0.83320  0.60190  Biso   1.000  O
  N1       1.0000 0.01880  0.42290  0.96340  Biso   1.000  N
  N2       1.0000 0.05700  0.57840  0.94320  Biso   1.000  N
  N3       1.0000 0.17310  0.41820  0.89970  Biso   1.000  N
  N4       1.0000 0.78690  0.55720  0.84030  Biso   1.000  N
  N5       1.0000 0.82370  0.71160  0.82060  Biso   1.000  N
  N6       1.0000 0.94030  0.55420  0.77630  Biso   1.000  N
  B1       1.0000 0.15880  0.42860  0.97660  Biso   1.000  B
  B2       1.0000 0.77000  0.65210  0.77250  Biso   1.000  B
  C1       1.0000 0.95990  0.38850  0.98050  Biso   1.000  C
  H1       1.0000 0.96990  0.35220  0.00710  Biso   1.000  H
  C2       1.0000 0.88020  0.40140  0.96190  Biso   1.000  C
  C3       1.0000 0.82450  0.36290  0.98540  Biso   1.000  C
  H2       1.0000 0.84110  0.32840  0.01190  Biso   1.000  H
  C4       1.0000 0.74440  0.37180  0.97220  Biso   1.000  C
  C5       1.0000 0.72240  0.42540  0.93390  Biso   1.000  C
  H3       1.0000 0.66700  0.43480  0.92470  Biso   1.000  H
  C6       1.0000 0.77560  0.46590  0.90840  Biso   1.000  C
  C7       1.0000 0.86100  0.45440  0.92260  Biso   1.000  C
  C8       1.0000 0.74630  0.51880  0.86910  Biso   1.000  C
  H4       1.0000 0.68810  0.52610  0.86390  Biso   1.000  H
  C9       1.0000 0.68710  0.32450  0.00060  Biso   1.000  C
  C10      1.0000 0.74130  0.23790  0.02540  Biso   1.000  C
  H5       1.0000 0.69940  0.21270  0.04240  Biso   1.000  H
  H6       1.0000 0.78670  0.19400  0.00580  Biso   1.000  H
  H7       1.0000 0.77360  0.24950  0.04430  Biso   1.000  H
  C11      1.0000 0.61650  0.39350  0.03250  Biso   1.000  C
  H8       1.0000 0.57990  0.45140  0.01660  Biso   1.000  H
  H9       1.0000 0.57500  0.36820  0.04990  Biso   1.000  H
  H10      1.0000 0.65010  0.40430  0.05110  Biso   1.000  H
  C12      1.0000 0.63070  0.30920  0.97180  Biso   1.000  C
  H11      1.0000 0.59530  0.36730  0.95560  Biso   1.000  H
  H12      1.0000 0.67330  0.26470  0.95190  Biso   1.000  H
  H13      1.0000 0.58790  0.28610  0.98970  Biso   1.000  H
  C13      1.0000 0.02820  0.66700  0.94280  Biso   1.000  C
  H14      1.0000 0.05420  0.68640  0.96050  Biso   1.000  H
  C14      1.0000 0.96000  0.73760  0.91770  Biso   1.000  C
  C15      1.0000 0.93430  0.82810  0.92440  Biso   1.000  C
  H15      1.0000 0.96280  0.83840  0.94450  Biso   1.000  H
  C16      1.0000 0.86770  0.90490  0.90290  Biso   1.000  C
  C17      1.0000 0.82930  0.88490  0.87370  Biso   1.000  C
  H16      1.0000 0.78450  0.93420  0.85840  Biso   1.000  H
  C18      1.0000 0.85380  0.79510  0.86570  Biso   1.000  C
  C19      1.0000 0.91960  0.71880  0.88760  Biso   1.000  C
  C20      1.0000 0.81180  0.78660  0.83240  Biso   1.000  C
  H17      1.0000 0.77160  0.84180  0.81800  Biso   1.000  H
  C21      1.0000 0.83900  0.00100  0.91490  Biso   1.000  C
  C22      1.0000 0.92440  0.02060  0.90170  Biso   1.000  C
  H18      1.0000 0.94550  0.01540  0.87110  Biso   1.000  H
  H19      1.0000 0.90820  0.08260  0.90760  Biso   1.000  H
  H20      1.0000 0.97400  0.97630  0.91780  Biso   1.000  H
  C23      1.0000 0.80590  0.00870  0.96130  Biso   1.000  C
  H21      1.0000 0.75140  0.99600  0.96940  Biso   1.000  H
  H22      1.0000 0.85520  0.96430  0.97760  Biso   1.000  H
  H23      1.0000 0.78940  0.07060  0.96740  Biso   1.000  H
  C24      1.0000 0.75970  0.07060  0.88810  Biso   1.000  C
  H24      1.0000 0.78220  0.06500  0.85770  Biso   1.000  H
  H25      1.0000 0.70580  0.05690  0.89610  Biso   1.000  H
  H26      1.0000 0.74200  0.13310  0.89400  Biso   1.000  H
  C25      1.0000 0.23220  0.38650  0.86540  Biso   1.000  C
  H27      1.0000 0.29520  0.34950  0.86910  Biso   1.000  H
  C26      1.0000 0.21030  0.40270  0.82370  Biso   1.000  C
  C27      1.0000 0.28070  0.36100  0.79120  Biso   1.000  C
  H28      1.0000 0.34070  0.32540  0.79920  Biso   1.000  H
  C28      1.0000 0.27440  0.36480  0.74930  Biso   1.000  C
  C29      1.0000 0.18310  0.41750  0.73850  Biso   1.000  C
  H29      1.0000 0.17240  0.42640  0.70970  Biso   1.000  H
  C30      1.0000 0.10920  0.45590  0.77070  Biso   1.000  C
  C31      1.0000 0.11940  0.45230  0.81330  Biso   1.000  C
  C32      1.0000 0.02000  0.51040  0.75340  Biso   1.000  C
  H30      1.0000 0.02110  0.51370  0.72360  Biso   1.000  H
  C33      1.0000 0.35330  0.32470  0.71510  Biso   1.000  C
  C34      1.0000 0.44740  0.27230  0.73010  Biso   1.000  C
  H31      1.0000 0.49500  0.24830  0.70570  Biso   1.000  H
  H32      1.0000 0.46100  0.31320  0.74300  Biso   1.000  H
  H33      1.0000 0.44700  0.22140  0.75130  Biso   1.000  H
  C35      1.0000 0.36320  0.40260  0.68260  Biso   1.000  C
  H34      1.0000 0.41500  0.37640  0.66000  Biso   1.000  H
  H35      1.0000 0.30580  0.43830  0.67000  Biso   1.000  H
  H36      1.0000 0.37500  0.44260  0.69720  Biso   1.000  H
  C36      1.0000 0.33950  0.26570  0.68980  Biso   1.000  C
  H37      1.0000 0.39340  0.24140  0.66790  Biso   1.000  H
  H38      1.0000 0.33230  0.21490  0.70880  Biso   1.000  H
  H39      1.0000 0.28370  0.30210  0.67600  Biso   1.000  H
  C37      1.0000 0.22930  0.38770  0.01230  Biso   1.000  C
  C38      1.0000 0.28950  0.42330  0.01210  Biso   1.000  C
  H40      1.0000 0.28830  0.47360  0.99190  Biso   1.000  H
  C39      1.0000 0.35360  0.38700  0.04120  Biso   1.000  C
  H41      1.0000 0.39760  0.41030  0.03980  Biso   1.000  H
  C40      1.0000 0.35170  0.31850  0.07120  Biso   1.000  C
  C41      1.0000 0.28960  0.28090  0.07210  Biso   1.000  C
  H42      1.0000 0.28970  0.23140  0.09260  Biso   1.000  H
  C42      1.0000 0.22850  0.31720  0.04270  Biso   1.000  C
  H43      1.0000 0.18520  0.29320  0.04340  Biso   1.000  H
  C43      1.0000 0.42460  0.27100  0.10240  Biso   1.000  C
  C44      1.0000 0.70600  0.68890  0.73510  Biso   1.000  C
  C45      1.0000 0.63090  0.67140  0.73990  Biso   1.000  C
  H44      1.0000 0.61680  0.63820  0.76550  Biso   1.000  H
  C46      1.0000 0.57330  0.70140  0.70790  Biso   1.000  C
  H45      1.0000 0.52290  0.68580  0.71130  Biso   1.000  H
  C47      1.0000 0.59010  0.75190  0.67270  Biso   1.000  C
  C48      1.0000 0.67050  0.77670  0.66710  Biso   1.000  C
  H46      1.0000 0.68140  0.81520  0.64300  Biso   1.000  H
  C49      1.0000 0.72610  0.74180  0.69790  Biso   1.000  C
  H47      1.0000 0.77940  0.75290  0.69460  Biso   1.000  H
  C50      1.0000 0.53500  0.78600  0.63900  Biso   1.000  C
  Co3      1.0000 0.86503  0.36336  0.17658  Biso   1.000  Co
  Co4      1.0000 0.78931  0.49385  0.24170  Biso   1.000  Co
  O14      1.0000 0.97810  0.17270  0.14900  Biso   1.000  O
  O15      1.0000 0.84060  0.26580  0.11270  Biso   1.000  O
  O16      1.0000 0.97740  0.29800  0.09290  Biso   1.000  O
  O17      1.0000 0.76800  0.54030  0.33150  Biso   1.000  O
  O18      1.0000 0.62800  0.63300  0.29550  Biso   1.000  O
  O19      1.0000 0.76400  0.66190  0.27600  Biso   1.000  O
  O20      1.0000 0.87100  0.35170  0.24190  Biso   1.000  O
  O21      1.0000 0.73100  0.45020  0.20290  Biso   1.000  O
  O22      1.0000 0.87480  0.48320  0.18270  Biso   1.000  O
  O23      1.0000 0.07860  0.90010  0.98290  Biso   1.000  O
  O24      1.0000 0.18340  0.95180  0.95950  Biso   1.000  O
  O25      1.0000 0.53830  0.89280  0.46600  Biso   1.000  O
  O26      1.0000 0.62710  0.95200  0.43020  Biso   1.000  O
  N7       1.0000 0.94800  0.22150  0.18450  Biso   1.000  N
  N8       1.0000 0.79070  0.33340  0.14120  Biso   1.000  N
  N9       1.0000 0.95140  0.36620  0.11850  Biso   1.000  N
  N10      1.0000 0.80730  0.46400  0.30680  Biso   1.000  N
  N11      1.0000 0.64920  0.57540  0.26330  Biso   1.000  N
  N12      1.0000 0.80720  0.61370  0.23970  Biso   1.000  N
  B3       1.0000 0.94340  0.22780  0.10940  Biso   1.000  B
  B4       1.0000 0.71090  0.62960  0.30930  Biso   1.000  B
  C51      1.0000 0.97720  0.16690  0.21780  Biso   1.000  C
  H48      1.0000 0.01360  0.10400  0.21390  Biso   1.000  H
  C52      1.0000 0.96050  0.19140  0.26010  Biso   1.000  C
  C53      1.0000 0.99540  0.12560  0.29120  Biso   1.000  C
  H49      1.0000 0.02750  0.06500  0.28330  Biso   1.000  H
  C54      1.0000 0.99060  0.13470  0.33480  Biso   1.000  C
  C55      1.0000 0.93590  0.22910  0.34340  Biso   1.000  C
  H50      1.0000 0.92490  0.24210  0.37210  Biso   1.000  H
  C56      1.0000 0.89990  0.29910  0.31430  Biso   1.000  C
  C57      1.0000 0.90930  0.28670  0.27120  Biso   1.000  C
  C58      1.0000 0.84780  0.39130  0.32890  Biso   1.000  C
  H51      1.0000 0.84490  0.39530  0.35830  Biso   1.000  H
  C59      1.0000 0.03530  0.06210  0.36820  Biso   1.000  C
  C60      1.0000 0.12660  0.05600  0.37120  Biso   1.000  C
  H52      1.0000 0.15470  0.00720  0.39360  Biso   1.000  H
  H53      1.0000 0.16680  0.04150  0.34390  Biso   1.000  H
  H54      1.0000 0.11920  0.11420  0.37830  Biso   1.000  H
  C61      1.0000 0.05130  0.96830  0.36310  Biso   1.000  C
  H55      1.0000 0.99240  0.96840  0.36090  Biso   1.000  H
  H56      1.0000 0.09500  0.94800  0.33710  Biso   1.000  H
  H57      1.0000 0.07720  0.92660  0.38780  Biso   1.000  H
  C62      1.0000 0.98410  0.07720  0.41280  Biso   1.000  C
  H58      1.0000 0.92160  0.08230  0.41390  Biso   1.000  H
  H59      1.0000 0.01750  0.02540  0.43280  Biso   1.000  H
  H60      1.0000 0.97970  0.13360  0.42080  Biso   1.000  H
  C63      1.0000 0.70310  0.35850  0.14230  Biso   1.000  C
  H61      1.0000 0.68450  0.32860  0.12620  Biso   1.000  H
  C64      1.0000 0.62940  0.43250  0.16800  Biso   1.000  C
  C65      1.0000 0.53930  0.45650  0.16040  Biso   1.000  C
  H62      1.0000 0.53110  0.42460  0.14110  Biso   1.000  H
  C66      1.0000 0.45970  0.52740  0.18070  Biso   1.000  C
  C67      1.0000 0.47910  0.56660  0.21000  Biso   1.000  C
  H63      1.0000 0.42880  0.61340  0.22490  Biso   1.000  H
  C68      1.0000 0.57050  0.54030  0.21870  Biso   1.000  C
  C69      1.0000 0.64680  0.47410  0.19530  Biso   1.000  C
  C70      1.0000 0.57750  0.58850  0.24980  Biso   1.000  C
  H64      1.0000 0.52120  0.63550  0.26130  Biso   1.000  H
  C71      1.0000 0.36150  0.55550  0.17040  Biso   1.000  C
  C72      1.0000 0.33980  0.47260  0.18210  Biso   1.000  C
  H65      1.0000 0.34040  0.45350  0.21270  Biso   1.000  H
  H66      1.0000 0.27840  0.48890  0.17500  Biso   1.000  H
  H67      1.0000 0.38660  0.42230  0.16600  Biso   1.000  H
  C73      1.0000 0.36030  0.58370  0.12410  Biso   1.000  C
  H68      1.0000 0.37420  0.63690  0.11630  Biso   1.000  H
  H69      1.0000 0.40710  0.53310  0.10820  Biso   1.000  H
  H70      1.0000 0.29890  0.59970  0.11710  Biso   1.000  H
  C74      1.0000 0.28800  0.63530  0.19690  Biso   1.000  C
  H71      1.0000 0.28990  0.61520  0.22740  Biso   1.000  H
  H72      1.0000 0.30200  0.68840  0.18940  Biso   1.000  H
  H73      1.0000 0.22600  0.65200  0.19040  Biso   1.000  H
  C75      1.0000 0.98410  0.42500  0.10090  Biso   1.000  C
  H74      1.0000 0.01940  0.41540  0.07340  Biso   1.000  H
  C76      1.0000 0.97120  0.50540  0.12000  Biso   1.000  C
  C77      1.0000 0.01860  0.55450  0.09680  Biso   1.000  C
  H75      1.0000 0.05910  0.53160  0.07170  Biso   1.000  H
  C78      1.0000 0.01050  0.63400  0.10820  Biso   1.000  C
  C79      1.0000 0.94960  0.66270  0.14730  Biso   1.000  C
  H76      1.0000 0.93940  0.71900  0.15590  Biso   1.000  H
  C80      1.0000 0.90550  0.61420  0.17290  Biso   1.000  C
  C81      1.0000 0.91620  0.53020  0.15980  Biso   1.000  C
  C82      1.0000 0.85250  0.64820  0.21180  Biso   1.000  C
  H77      1.0000 0.85090  0.70330  0.21760  Biso   1.000  H
  C83      1.0000 0.05440  0.69510  0.08210  Biso   1.000  C
  C84      1.0000 0.14460  0.63640  0.05500  Biso   1.000  C
  H78      1.0000 0.13110  0.60510  0.03620  Biso   1.000  H
  H79      1.0000 0.17230  0.67560  0.03780  Biso   1.000  H
  H80      1.0000 0.18800  0.59090  0.07380  Biso   1.000  H
  C85      1.0000 0.98840  0.76580  0.04980  Biso   1.000  C
  H81      1.0000 0.97440  0.73290  0.03200  Biso   1.000  H
  H82      1.0000 0.93070  0.80700  0.06570  Biso   1.000  H
  H83      1.0000 0.01910  0.80150  0.03170  Biso   1.000  H
  C86      1.0000 0.07880  0.74210  0.11070  Biso   1.000  C
  H84      1.0000 0.10670  0.78080  0.09310  Biso   1.000  H
  H85      1.0000 0.02240  0.78010  0.12860  Biso   1.000  H
  H86      1.0000 0.12290  0.69590  0.12900  Biso   1.000  H
  C87      1.0000 0.98310  0.15790  0.07290  Biso   1.000  C
  C88      1.0000 0.06280  0.14930  0.04400  Biso   1.000  C
  H87      1.0000 0.09020  0.18900  0.04430  Biso   1.000  H
  C89      1.0000 0.10290  0.08450  0.01510  Biso   1.000  C
  H88      1.0000 0.15710  0.07990  0.99590  Biso   1.000  H
  C90      1.0000 0.06350  0.02690  0.01430  Biso   1.000  C
  C91      1.0000 0.99050  0.02870  0.04260  Biso   1.000  C
  H89      1.0000 0.96630  0.98610  0.04270  Biso   1.000  H
  C92      1.0000 0.94940  0.09390  0.07210  Biso   1.000  C
  H90      1.0000 0.89740  0.09470  0.09200  Biso   1.000  H
  C93      1.0000 0.10750  0.95470  0.98420  Biso   1.000  C
  C94      1.0000 0.67220  0.70180  0.34510  Biso   1.000  C
  C95      1.0000 0.61550  0.69250  0.38260  Biso   1.000  C
  H91      1.0000 0.59550  0.64530  0.38710  Biso   1.000  H
  C96      1.0000 0.58820  0.75210  0.41340  Biso   1.000  C
  H92      1.0000 0.54950  0.74570  0.43890  Biso   1.000  H
  C97      1.0000 0.61750  0.82100  0.40670  Biso   1.000  C
  C98      1.0000 0.67410  0.83030  0.36930  Biso   1.000  C
  H93      1.0000 0.69420  0.87740  0.36480  Biso   1.000  H
  C99      1.0000 0.70150  0.77070  0.33850  Biso   1.000  C
  H94      1.0000 0.74020  0.77710  0.31290  Biso   1.000  H
  C100     1.0000 0.59000  0.90200  0.43350  Biso   1.000  C
  Co5      1.0000 0.24762  0.61267  0.35290  Biso   1.000  Co
  Co6      1.0000 0.09779  0.74732  0.30409  Biso   1.000  Co
  O27      1.0000 0.38850  0.42000  0.37590  Biso   1.000  O
  O28      1.0000 0.32350  0.51510  0.43620  Biso   1.000  O
  O29      1.0000 0.43760  0.54020  0.37740  Biso   1.000  O
  O30      1.0000 0.97120  0.79570  0.23890  Biso   1.000  O
  O31      1.0000 0.90300  0.89110  0.29930  Biso   1.000  O
  O32      1.0000 0.01670  0.91430  0.24150  Biso   1.000  O
  O33      1.0000 0.17400  0.60250  0.31010  Biso   1.000  O
  O34      1.0000 0.11150  0.70770  0.37020  Biso   1.000  O
  O35      1.0000 0.23050  0.72640  0.30800  Biso   1.000  O
  O36      1.0000 0.72210  0.12450  0.51000  Biso   1.000  O
  O37      1.0000 0.78230  0.22070  0.49690  Biso   1.000  O
  O38      1.0000 0.54430  0.13400  0.17770  Biso   1.000  O
  O39      1.0000 0.62290  0.20930  0.14160  Biso   1.000  O
  N13      1.0000 0.31710  0.47320  0.35070  Biso   1.000  N
  N14      1.0000 0.24330  0.57960  0.41940  Biso   1.000  N
  N15      1.0000 0.37570  0.61070  0.35350  Biso   1.000  N
  N16      1.0000 0.03770  0.72170  0.25940  Biso   1.000  N
  N17      1.0000 0.95950  0.83250  0.32900  Biso   1.000  N
  N18      1.0000 0.09540  0.86170  0.26130  Biso   1.000  N
  B5       1.0000 0.40900  0.47490  0.40090  Biso   1.000  B
  B6       1.0000 0.94230  0.88680  0.25240  Biso   1.000  B
  C101     1.0000 0.30330  0.41680  0.33360  Biso   1.000  C
  H95      1.0000 0.33900  0.35320  0.34060  Biso   1.000  H
  C102     1.0000 0.23470  0.44520  0.30350  Biso   1.000  C
  C103     1.0000 0.23710  0.37170  0.28600  Biso   1.000  C
  H96      1.0000 0.27970  0.31070  0.29380  Biso   1.000  H
  C104     1.0000 0.17420  0.38930  0.25600  Biso   1.000  C
  C105     1.0000 0.11770  0.47900  0.24560  Biso   1.000  C
  H97      1.0000 0.07820  0.49300  0.22490  Biso   1.000  H
  C106     1.0000 0.11390  0.55440  0.26420  Biso   1.000  C
  C107     1.0000 0.17500  0.53640  0.29310  Biso   1.000  C
  C108     1.0000 0.05220  0.64830  0.24720  Biso   1.000  C
  H98      1.0000 0.02060  0.65280  0.22470  Biso   1.000  H
  C109     1.0000 0.17780  0.31120  0.23680  Biso   1.000  C
  C110     1.0000 0.26680  0.27490  0.20920  Biso   1.000  C
  H99      1.0000 0.31720  0.25400  0.22620  Biso   1.000  H
  H100     1.0000 0.27240  0.22330  0.19600  Biso   1.000  H
  H101     1.0000 0.27030  0.32290  0.18690  Biso   1.000  H
  C111     1.0000 0.16710  0.23570  0.27490  Biso   1.000  C
  H102     1.0000 0.10660  0.26300  0.29250  Biso   1.000  H
  H103     1.0000 0.17180  0.18340  0.26260  Biso   1.000  H
  H104     1.0000 0.21640  0.21500  0.29260  Biso   1.000  H
  C112     1.0000 0.10350  0.34190  0.20920  Biso   1.000  C
  H105     1.0000 0.04250  0.36680  0.22670  Biso   1.000  H
  H106     1.0000 0.10860  0.38930  0.18690  Biso   1.000  H
  H107     1.0000 0.11070  0.28970  0.19600  Biso   1.000  H
  C113     1.0000 0.17350  0.60700  0.44900  Biso   1.000  C
  H108     1.0000 0.18430  0.58150  0.47740  Biso   1.000  H
  C114     1.0000 0.07720  0.67500  0.44280  Biso   1.000  C
  C115     1.0000 0.01750  0.67920  0.48050  Biso   1.000  C
  H109     1.0000 0.04060  0.63940  0.50500  Biso   1.000  H
  C116     1.0000 0.92540  0.73970  0.48330  Biso   1.000  C
  C117     1.0000 0.89710  0.78880  0.44310  Biso   1.000  C
  H110     1.0000 0.83360  0.82980  0.44270  Biso   1.000  H
  C118     1.0000 0.95880  0.77970  0.40370  Biso   1.000  C
  C119     1.0000 0.05360  0.71780  0.40480  Biso   1.000  C
  C120     1.0000 0.91930  0.83570  0.36660  Biso   1.000  C
  H111     1.0000 0.85640  0.87950  0.37120  Biso   1.000  H
  C121     1.0000 0.85130  0.76000  0.52140  Biso   1.000  C
  C122     1.0000 0.82300  0.85500  0.52760  Biso   1.000  C
  H112     1.0000 0.80230  0.89470  0.50150  Biso   1.000  H
  H113     1.0000 0.77170  0.87350  0.55130  Biso   1.000  H
  H114     1.0000 0.87530  0.86160  0.53430  Biso   1.000  H
  C123     1.0000 0.76770  0.75400  0.51510  Biso   1.000  C
  H115     1.0000 0.74630  0.79160  0.48860  Biso   1.000  H
  H116     1.0000 0.78210  0.69070  0.51320  Biso   1.000  H
  H117     1.0000 0.71890  0.77750  0.53920  Biso   1.000  H
  C124     1.0000 0.88080  0.70500  0.56070  Biso   1.000  C
  H118     1.0000 0.90040  0.64020  0.55750  Biso   1.000  H
  H119     1.0000 0.93290  0.71200  0.56710  Biso   1.000  H
  H120     1.0000 0.82920  0.72400  0.58410  Biso   1.000  H
  C125     1.0000 0.40760  0.66710  0.33740  Biso   1.000  C
  H121     1.0000 0.46480  0.65670  0.34510  Biso   1.000  H
  C126     1.0000 0.36470  0.74850  0.30730  Biso   1.000  C
  C127     1.0000 0.40940  0.80790  0.29150  Biso   1.000  C
  H122     1.0000 0.46340  0.79480  0.30310  Biso   1.000  H
  C128     1.0000 0.38310  0.87730  0.26280  Biso   1.000  C
  C129     1.0000 0.29940  0.90060  0.24740  Biso   1.000  C
  H123     1.0000 0.27910  0.94990  0.22570  Biso   1.000  H
  C130     1.0000 0.24800  0.85420  0.26300  Biso   1.000  C
  C131     1.0000 0.27830  0.77610  0.29310  Biso   1.000  C
  C132     1.0000 0.15710  0.88920  0.24780  Biso   1.000  C
  H124     1.0000 0.14420  0.93780  0.22540  Biso   1.000  H
  C133     1.0000 0.44460  0.92780  0.24310  Biso   1.000  C
  C134     1.0000 0.54320  0.86070  0.22790  Biso   1.000  C
  H125     1.0000 0.56720  0.81250  0.25100  Biso   1.000  H
  H126     1.0000 0.54340  0.83320  0.20340  Biso   1.000  H
  H127     1.0000 0.58260  0.89310  0.21940  Biso   1.000  H
  C135     1.0000 0.44800  0.97230  0.27980  Biso   1.000  C
  H128     1.0000 0.47050  0.92550  0.30360  Biso   1.000  H
  H129     1.0000 0.49000  0.00170  0.27020  Biso   1.000  H
  H130     1.0000 0.38570  0.01840  0.28920  Biso   1.000  H
  C136     1.0000 0.41000  0.00060  0.20690  Biso   1.000  C
  H131     1.0000 0.34650  0.04460  0.21600  Biso   1.000  H
  H132     1.0000 0.45010  0.03220  0.19850  Biso   1.000  H
  H133     1.0000 0.41090  0.97230  0.18250  Biso   1.000  H
  C137     1.0000 0.49440  0.39730  0.42880  Biso   1.000  C
  C138     1.0000 0.57480  0.40950  0.42320  Biso   1.000  C
  H134     1.0000 0.57900  0.46030  0.40510  Biso   1.000  H
  C139     1.0000 0.64910  0.34730  0.44410  Biso   1.000  C
  H135     1.0000 0.70410  0.35560  0.44020  Biso   1.000  H
  C140     1.0000 0.64300  0.27290  0.47050  Biso   1.000  C
  C141     1.0000 0.56250  0.26070  0.47620  Biso   1.000  C
  H136     1.0000 0.55830  0.20990  0.49430  Biso   1.000  H
  C142     1.0000 0.48820  0.32290  0.45530  Biso   1.000  C
  H137     1.0000 0.43330  0.31460  0.45920  Biso   1.000  H
  C143     1.0000 0.72250  0.19850  0.49080  Biso   1.000  C
  C144     1.0000 0.85830  0.95800  0.22760  Biso   1.000  C
  C145     1.0000 0.77470  0.94700  0.23530  Biso   1.000  C
  H138     1.0000 0.77210  0.89630  0.25420  Biso   1.000  H
  C146     1.0000 0.69650  0.00750  0.21640  Biso   1.000  C
  H139     1.0000 0.64220  0.99770  0.22200  Biso   1.000  H
  C147     1.0000 0.69910  0.08280  0.18900  Biso   1.000  C
  C148     1.0000 0.78040  0.09500  0.18090  Biso   1.000  C
  H140     1.0000 0.78330  0.14490  0.16150  Biso   1.000  H
  C149     1.0000 0.85680  0.03530  0.20070  Biso   1.000  C
  H141     1.0000 0.90980  0.04720  0.19570  Biso   1.000  H
  C150     1.0000 0.61620  0.14500  0.16830  Biso   1.000  C
  Co7      1.0000 0.65132  0.26364  0.78414  Biso   1.000  Co
  Co8      1.0000 0.78688  0.11625  0.73177  Biso   1.000  Co
  O40      1.0000 0.48070  0.34590  0.84870  Biso   1.000  O
  O41      1.0000 0.50890  0.45650  0.79220  Biso   1.000  O
  O42      1.0000 0.60270  0.39000  0.85120  Biso   1.000  O
  O43      1.0000 0.85840  0.92960  0.70200  Biso   1.000  O
  O44      1.0000 0.88830  0.04280  0.64720  Biso   1.000  O
  O45      1.0000 0.98020  0.97110  0.70610  Biso   1.000  O
  O46      1.0000 0.67200  0.13320  0.77830  Biso   1.000  O
  O47      1.0000 0.69300  0.25380  0.71780  Biso   1.000  O
  O48      1.0000 0.79760  0.18720  0.77640  Biso   1.000  O
  O49      1.0000 0.17620  0.75200  0.94530  Biso   1.000  O
  O50      1.0000 0.26210  0.82090  0.91040  Biso   1.000  O
  O51      1.0000 0.17880  0.62160  0.55490  Biso   1.000  O
  O52      1.0000 0.27510  0.68330  0.54940  Biso   1.000  O
  N19      1.0000 0.53460  0.26810  0.82830  Biso   1.000  N
  N20      1.0000 0.56450  0.39920  0.76190  Biso   1.000  N
  N21      1.0000 0.67740  0.32420  0.82840  Biso   1.000  N
  N22      1.0000 0.78730  0.99200  0.72840  Biso   1.000  N
  N23      1.0000 0.82160  0.11970  0.66800  Biso   1.000  N
  N24      1.0000 0.92610  0.04830  0.73110  Biso   1.000  N
  B7       1.0000 0.50980  0.41660  0.83860  Biso   1.000  B
  B8       1.0000 0.92950  0.95730  0.68030  Biso   1.000  B
  C151     1.0000 0.50940  0.20630  0.84040  Biso   1.000  C
  H142     1.0000 0.45860  0.21900  0.86270  Biso   1.000  H
  C152     1.0000 0.54780  0.11430  0.82480  Biso   1.000  C
  C153     1.0000 0.49720  0.06150  0.84090  Biso   1.000  C
  H143     1.0000 0.44510  0.08400  0.86230  Biso   1.000  H
  C154     1.0000 0.52170  0.97710  0.82640  Biso   1.000  C
  C155     1.0000 0.60080  0.94890  0.79340  Biso   1.000  C
  H144     1.0000 0.62120  0.89200  0.78260  Biso   1.000  H
  C156     1.0000 0.64710  0.00110  0.77740  Biso   1.000  C
  C157     1.0000 0.62560  0.08170  0.79360  Biso   1.000  C
  C158     1.0000 0.73110  0.95700  0.74600  Biso   1.000  C
  H145     1.0000 0.74380  0.89890  0.73860  Biso   1.000  H
  C159     1.0000 0.47330  0.91730  0.84310  Biso   1.000  C
  C160     1.0000 0.40020  0.95460  0.88280  Biso   1.000  C
  H146     1.0000 0.35640  0.01780  0.87530  Biso   1.000  H
  H147     1.0000 0.36660  0.91670  0.89230  Biso   1.000  H
  H148     1.0000 0.43180  0.95280  0.90590  Biso   1.000  H
  C161     1.0000 0.41820  0.91820  0.81060  Biso   1.000  C
  H149     1.0000 0.37490  0.98130  0.80250  Biso   1.000  H
  H150     1.0000 0.46060  0.89170  0.78520  Biso   1.000  H
  H151     1.0000 0.38340  0.88210  0.82290  Biso   1.000  H
  C162     1.0000 0.53900  0.82130  0.85530  Biso   1.000  C
  H152     1.0000 0.50450  0.78450  0.86610  Biso   1.000  H
  H153     1.0000 0.58360  0.79600  0.83030  Biso   1.000  H
  H154     1.0000 0.57220  0.82030  0.87760  Biso   1.000  H
  C163     1.0000 0.56110  0.43880  0.72520  Biso   1.000  C
  H155     1.0000 0.52020  0.50210  0.72350  Biso   1.000  H
  C164     1.0000 0.60940  0.40440  0.68470  Biso   1.000  C
  C165     1.0000 0.59820  0.46250  0.64890  Biso   1.000  C
  H156     1.0000 0.55860  0.52510  0.65230  Biso   1.000  H
  C166     1.0000 0.63830  0.44130  0.60730  Biso   1.000  C
  C167     1.0000 0.70360  0.34010  0.60590  Biso   1.000  C
  H157     1.0000 0.73350  0.31790  0.57900  Biso   1.000  H
  C168     1.0000 0.72080  0.27920  0.64240  Biso   1.000  C
  C169     1.0000 0.67660  0.30780  0.68310  Biso   1.000  C
  C170     1.0000 0.79530  0.18570  0.63750  Biso   1.000  C
  H158     1.0000 0.82680  0.17270  0.60950  Biso   1.000  H
  C171     1.0000 0.62420  0.50800  0.56740  Biso   1.000  C
  C172     1.0000 0.66300  0.47300  0.52810  Biso   1.000  C
  H159     1.0000 0.73070  0.44610  0.52550  Biso   1.000  H
  H160     1.0000 0.64370  0.42570  0.52620  Biso   1.000  H
  H161     1.0000 0.64180  0.52210  0.50500  Biso   1.000  H
  C173     1.0000 0.64400  0.58200  0.56640  Biso   1.000  C
  H162     1.0000 0.61790  0.60920  0.59360  Biso   1.000  H
  H163     1.0000 0.71160  0.56160  0.56190  Biso   1.000  H
  H164     1.0000 0.61730  0.62870  0.54310  Biso   1.000  H
  C174     1.0000 0.52800  0.54500  0.56900  Biso   1.000  C
  H165     1.0000 0.49760  0.57110  0.59620  Biso   1.000  H
  H166     1.0000 0.50860  0.59360  0.54540  Biso   1.000  H
  H167     1.0000 0.51050  0.49710  0.56660  Biso   1.000  H
  C175     1.0000 0.75240  0.30920  0.84020  Biso   1.000  C
  H168     1.0000 0.74800  0.34350  0.86190  Biso   1.000  H
  C176     1.0000 0.84570  0.24410  0.82370  Biso   1.000  C
  C177     1.0000 0.92360  0.23990  0.83900  Biso   1.000  C
  H169     1.0000 0.91090  0.27950  0.85980  Biso   1.000  H
  C178     1.0000 0.01300  0.18530  0.82680  Biso   1.000  C
  C179     1.0000 0.02910  0.12630  0.79820  Biso   1.000  C
  H170     1.0000 0.09130  0.08380  0.79030  Biso   1.000  H
  C180     1.0000 0.95860  0.12460  0.77990  Biso   1.000  C
  C181     1.0000 0.86230  0.18800  0.79240  Biso   1.000  C
  C182     1.0000 0.98800  0.05600  0.75170  Biso   1.000  C
  H171     1.0000 0.05170  0.01450  0.74700  Biso   1.000  H
  C183     1.0000 0.09520  0.17940  0.84720  Biso   1.000  C
  C184     1.0000 0.06020  0.25900  0.87380  Biso   1.000  C
  H172     1.0000 0.03670  0.31680  0.85540  Biso   1.000  H
  H173     1.0000 0.01030  0.25680  0.89620  Biso   1.000  H
  H174     1.0000 0.11120  0.25470  0.88690  Biso   1.000  H
  C185     1.0000 0.17030  0.18840  0.81170  Biso   1.000  C
  H175     1.0000 0.14410  0.24770  0.79470  Biso   1.000  H
  H176     1.0000 0.22180  0.18390  0.82440  Biso   1.000  H
  H177     1.0000 0.19290  0.13930  0.79330  Biso   1.000  H
  C186     1.0000 0.13090  0.09190  0.87350  Biso   1.000  C
  H178     1.0000 0.15290  0.04200  0.85560  Biso   1.000  H
  H179     1.0000 0.18240  0.08640  0.88660  Biso   1.000  H
  H180     1.0000 0.08140  0.08860  0.89590  Biso   1.000  H
  C187     1.0000 0.44070  0.50430  0.86420  Biso   1.000  C
  C188     1.0000 0.45300  0.58580  0.85490  Biso   1.000  C
  H181     1.0000 0.50450  0.58650  0.83510  Biso   1.000  H
  C189     1.0000 0.39160  0.66520  0.87420  Biso   1.000  C
  H182     1.0000 0.40230  0.71840  0.86890  Biso   1.000  H
  C190     1.0000 0.31350  0.66300  0.90160  Biso   1.000  C
  C191     1.0000 0.29550  0.59020  0.90830  Biso   1.000  C
  H183     1.0000 0.23910  0.59370  0.92510  Biso   1.000  H
  C192     1.0000 0.35800  0.50920  0.89110  Biso   1.000  C
  H184     1.0000 0.34550  0.45700  0.89740  Biso   1.000  H
  C193     1.0000 0.24750  0.75140  0.91990  Biso   1.000  C
  C194     1.0000 0.00370  0.88270  0.64750  Biso   1.000  C
  C195     1.0000 0.98810  0.80860  0.64360  Biso   1.000  C
  H185     1.0000 0.93320  0.80410  0.65820  Biso   1.000  H
  C196     1.0000 0.05270  0.74100  0.61840  Biso   1.000  C
  H186     1.0000 0.04200  0.69030  0.61570  Biso   1.000  H
  C197     1.0000 0.13290  0.74750  0.59700  Biso   1.000  C
  C198     1.0000 0.14850  0.82170  0.60090  Biso   1.000  C
  H187     1.0000 0.20330  0.82610  0.58630  Biso   1.000  H
  C199     1.0000 0.08390  0.88920  0.62620  Biso   1.000  C
  H188     1.0000 0.09450  0.93990  0.62880  Biso   1.000  H
  C200     1.0000 0.19570  0.68500  0.56200  Biso   1.000  C
