data_image0
_cell_length_a       10.9122
_cell_length_b       14.8109
_cell_length_c       23.25
_cell_angle_alpha    90
_cell_angle_beta     90
_cell_angle_gamma    90

_symmetry_space_group_name_H-M    "P 1"
_symmetry_int_tables_number       1

loop_
  _symmetry_equiv_pos_as_xyz
  'x, y, z'

loop_
  _atom_site_label
  _atom_site_occupancy
  _atom_site_fract_x
  _atom_site_fract_y
  _atom_site_fract_z
  _atom_site_thermal_displace_type
  _atom_site_B_iso_or_equiv
  _atom_site_type_symbol
  Mn1      1.0000 0.22838  0.57081  0.60878  Biso   1.000  Mn
  C1       1.0000 0.32276  0.36384  0.61311  Biso   1.000  C
  H1       1.0000 0.24250  0.35320  0.62480  Biso   1.000  H
  C2       1.0000 0.39921  0.29090  0.60674  Biso   1.000  C
  H2       1.0000 0.37170  0.23250  0.61380  Biso   1.000  H
  C3       1.0000 0.51571  0.30688  0.58988  Biso   1.000  C
  H3       1.0000 0.57030  0.25920  0.58530  Biso   1.000  H
  C4       1.0000 0.55271  0.39327  0.57964  Biso   1.000  C
  H4       1.0000 0.63280  0.40460  0.56800  Biso   1.000  H
  C5       1.0000 0.47171  0.46390  0.58653  Biso   1.000  C
  C6       1.0000 0.50501  0.55954  0.57398  Biso   1.000  C
  C7       1.0000 0.61929  0.58501  0.55572  Biso   1.000  C
  H5       1.0000 0.68050  0.54190  0.55100  Biso   1.000  H
  C8       1.0000 0.64306  0.67373  0.54444  Biso   1.000  C
  H6       1.0000 0.72050  0.69140  0.53210  Biso   1.000  H
  C9       1.0000 0.55242  0.73630  0.55147  Biso   1.000  C
  H7       1.0000 0.56660  0.79720  0.54440  Biso   1.000  H
  C10      1.0000 0.44071  0.70652  0.56924  Biso   1.000  C
  H8       1.0000 0.37840  0.74880  0.57360  Biso   1.000  H
  C11      1.0000 0.34081  0.66710  0.72155  Biso   1.000  C
  H9       1.0000 0.39670  0.68980  0.69510  Biso   1.000  H
  C12      1.0000 0.34450  0.69985  0.77626  Biso   1.000  C
  H10      1.0000 0.40140  0.74350  0.78700  Biso   1.000  H
  C13      1.0000 0.26230  0.66656  0.81453  Biso   1.000  C
  H11      1.0000 0.26210  0.68740  0.85230  Biso   1.000  H
  C14      1.0000 0.17970  0.60232  0.79767  Biso   1.000  C
  H12      1.0000 0.12290  0.57940  0.82370  Biso   1.000  H
  C15      1.0000 0.18183  0.57200  0.74152  Biso   1.000  C
  C16      1.0000 0.09464  0.50356  0.72001  Biso   1.000  C
  C17      1.0000 0.02130  0.45284  0.75537  Biso   1.000  C
  H13      1.0000 0.02730  0.45900  0.79510  Biso   1.000  H
  C18      1.0000 0.93980  0.39341  0.73227  Biso   1.000  C
  H14      1.0000 0.88850  0.35980  0.75600  Biso   1.000  H
  C19      1.0000 0.93390  0.38370  0.67418  Biso   1.000  C
  H15      1.0000 0.87950  0.34310  0.65750  Biso   1.000  H
  C20      1.0000 0.01045  0.43543  0.64091  Biso   1.000  C
  H16      1.0000 0.00640  0.42910  0.60120  Biso   1.000  H
  N1       1.0000 0.35666  0.44886  0.60360  Biso   1.000  N
  N2       1.0000 0.41510  0.62049  0.58079  Biso   1.000  N
  N3       1.0000 0.26194  0.60448  0.70371  Biso   1.000  N
  N4       1.0000 0.09003  0.49404  0.66267  Biso   1.000  N
  Mn2      1.0000 0.27162  0.42919  0.10878  Biso   1.000  Mn
  C21      1.0000 0.17724  0.63616  0.11311  Biso   1.000  C
  H17      1.0000 0.25750  0.64680  0.12480  Biso   1.000  H
  C22      1.0000 0.10079  0.70910  0.10674  Biso   1.000  C
  H18      1.0000 0.12830  0.76750  0.11380  Biso   1.000  H
  C23      1.0000 0.98429  0.69312  0.08988  Biso   1.000  C
  H19      1.0000 0.92970  0.74080  0.08530  Biso   1.000  H
  C24      1.0000 0.94729  0.60673  0.07964  Biso   1.000  C
  H20      1.0000 0.86720  0.59540  0.06800  Biso   1.000  H
  C25      1.0000 0.02829  0.53610  0.08653  Biso   1.000  C
  C26      1.0000 0.99499  0.44046  0.07398  Biso   1.000  C
  C27      1.0000 0.88071  0.41499  0.05572  Biso   1.000  C
  H21      1.0000 0.81950  0.45810  0.05100  Biso   1.000  H
  C28      1.0000 0.85694  0.32627  0.04444  Biso   1.000  C
  H22      1.0000 0.77950  0.30860  0.03210  Biso   1.000  H
  C29      1.0000 0.94758  0.26370  0.05147  Biso   1.000  C
  H23      1.0000 0.93340  0.20280  0.04440  Biso   1.000  H
  C30      1.0000 0.05929  0.29348  0.06924  Biso   1.000  C
  H24      1.0000 0.12160  0.25120  0.07360  Biso   1.000  H
  C31      1.0000 0.15919  0.33290  0.22155  Biso   1.000  C
  H25      1.0000 0.10330  0.31020  0.19510  Biso   1.000  H
  C32      1.0000 0.15550  0.30015  0.27626  Biso   1.000  C
  H26      1.0000 0.09860  0.25650  0.28700  Biso   1.000  H
  C33      1.0000 0.23770  0.33344  0.31453  Biso   1.000  C
  H27      1.0000 0.23790  0.31260  0.35230  Biso   1.000  H
  C34      1.0000 0.32030  0.39768  0.29767  Biso   1.000  C
  H28      1.0000 0.37710  0.42060  0.32370  Biso   1.000  H
  C35      1.0000 0.31817  0.42800  0.24152  Biso   1.000  C
  C36      1.0000 0.40536  0.49644  0.22001  Biso   1.000  C
  C37      1.0000 0.47870  0.54716  0.25537  Biso   1.000  C
  H29      1.0000 0.47270  0.54100  0.29510  Biso   1.000  H
  C38      1.0000 0.56020  0.60659  0.23227  Biso   1.000  C
  H30      1.0000 0.61150  0.64020  0.25600  Biso   1.000  H
  C39      1.0000 0.56610  0.61630  0.17418  Biso   1.000  C
  H31      1.0000 0.62050  0.65690  0.15750  Biso   1.000  H
  C40      1.0000 0.48955  0.56457  0.14091  Biso   1.000  C
  H32      1.0000 0.49360  0.57090  0.10120  Biso   1.000  H
  N5       1.0000 0.14334  0.55114  0.10360  Biso   1.000  N
  N6       1.0000 0.08490  0.37951  0.08079  Biso   1.000  N
  N7       1.0000 0.23806  0.39552  0.20371  Biso   1.000  N
  N8       1.0000 0.40997  0.50596  0.16267  Biso   1.000  N
  Mn3      1.0000 0.77162  0.07081  0.89122  Biso   1.000  Mn
  C41      1.0000 0.67724  0.86384  0.88689  Biso   1.000  C
  H33      1.0000 0.75750  0.85320  0.87520  Biso   1.000  H
  C42      1.0000 0.60079  0.79090  0.89326  Biso   1.000  C
  H34      1.0000 0.62830  0.73250  0.88620  Biso   1.000  H
  C43      1.0000 0.48429  0.80688  0.91012  Biso   1.000  C
  H35      1.0000 0.42970  0.75920  0.91470  Biso   1.000  H
  C44      1.0000 0.44729  0.89327  0.92036  Biso   1.000  C
  H36      1.0000 0.36720  0.90460  0.93200  Biso   1.000  H
  C45      1.0000 0.52829  0.96390  0.91347  Biso   1.000  C
  C46      1.0000 0.49499  0.05954  0.92602  Biso   1.000  C
  C47      1.0000 0.38071  0.08501  0.94428  Biso   1.000  C
  H37      1.0000 0.31950  0.04190  0.94900  Biso   1.000  H
  C48      1.0000 0.35694  0.17373  0.95556  Biso   1.000  C
  H38      1.0000 0.27950  0.19140  0.96790  Biso   1.000  H
  C49      1.0000 0.44758  0.23630  0.94853  Biso   1.000  C
  H39      1.0000 0.43340  0.29720  0.95560  Biso   1.000  H
  C50      1.0000 0.55929  0.20652  0.93076  Biso   1.000  C
  H40      1.0000 0.62160  0.24880  0.92640  Biso   1.000  H
  C51      1.0000 0.65919  0.16710  0.77845  Biso   1.000  C
  H41      1.0000 0.60330  0.18980  0.80490  Biso   1.000  H
  C52      1.0000 0.65550  0.19985  0.72374  Biso   1.000  C
  H42      1.0000 0.59860  0.24350  0.71300  Biso   1.000  H
  C53      1.0000 0.73770  0.16656  0.68547  Biso   1.000  C
  H43      1.0000 0.73790  0.18740  0.64770  Biso   1.000  H
  C54      1.0000 0.82030  0.10232  0.70233  Biso   1.000  C
  H44      1.0000 0.87710  0.07940  0.67630  Biso   1.000  H
  C55      1.0000 0.81817  0.07200  0.75848  Biso   1.000  C
  C56      1.0000 0.90536  0.00356  0.77999  Biso   1.000  C
  C57      1.0000 0.97870  0.95284  0.74463  Biso   1.000  C
  H45      1.0000 0.97270  0.95900  0.70490  Biso   1.000  H
  C58      1.0000 0.06020  0.89341  0.76773  Biso   1.000  C
  H46      1.0000 0.11150  0.85980  0.74400  Biso   1.000  H
  C59      1.0000 0.06610  0.88370  0.82582  Biso   1.000  C
  H47      1.0000 0.12050  0.84310  0.84250  Biso   1.000  H
  C60      1.0000 0.98955  0.93543  0.85909  Biso   1.000  C
  H48      1.0000 0.99360  0.92910  0.89880  Biso   1.000  H
  N9       1.0000 0.64334  0.94886  0.89640  Biso   1.000  N
  N10      1.0000 0.58490  0.12049  0.91921  Biso   1.000  N
  N11      1.0000 0.73806  0.10448  0.79629  Biso   1.000  N
  N12      1.0000 0.90997  0.99404  0.83733  Biso   1.000  N
  Mn4      1.0000 0.72838  0.92919  0.39122  Biso   1.000  Mn
  C61      1.0000 0.82276  0.13616  0.38689  Biso   1.000  C
  H49      1.0000 0.74250  0.14680  0.37520  Biso   1.000  H
  C62      1.0000 0.89921  0.20910  0.39326  Biso   1.000  C
  H50      1.0000 0.87170  0.26750  0.38620  Biso   1.000  H
  C63      1.0000 0.01571  0.19312  0.41012  Biso   1.000  C
  H51      1.0000 0.07030  0.24080  0.41470  Biso   1.000  H
  C64      1.0000 0.05271  0.10673  0.42036  Biso   1.000  C
  H52      1.0000 0.13280  0.09540  0.43200  Biso   1.000  H
  C65      1.0000 0.97171  0.03610  0.41347  Biso   1.000  C
  C66      1.0000 0.00501  0.94046  0.42602  Biso   1.000  C
  C67      1.0000 0.11929  0.91499  0.44428  Biso   1.000  C
  H53      1.0000 0.18050  0.95810  0.44900  Biso   1.000  H
  C68      1.0000 0.14306  0.82627  0.45556  Biso   1.000  C
  H54      1.0000 0.22050  0.80860  0.46790  Biso   1.000  H
  C69      1.0000 0.05242  0.76370  0.44853  Biso   1.000  C
  H55      1.0000 0.06660  0.70280  0.45560  Biso   1.000  H
  C70      1.0000 0.94071  0.79348  0.43076  Biso   1.000  C
  H56      1.0000 0.87840  0.75120  0.42640  Biso   1.000  H
  C71      1.0000 0.84081  0.83290  0.27845  Biso   1.000  C
  H57      1.0000 0.89670  0.81020  0.30490  Biso   1.000  H
  C72      1.0000 0.84450  0.80015  0.22374  Biso   1.000  C
  H58      1.0000 0.90140  0.75650  0.21300  Biso   1.000  H
  C73      1.0000 0.76230  0.83344  0.18547  Biso   1.000  C
  H59      1.0000 0.76210  0.81260  0.14770  Biso   1.000  H
  C74      1.0000 0.67970  0.89768  0.20233  Biso   1.000  C
  H60      1.0000 0.62290  0.92060  0.17630  Biso   1.000  H
  C75      1.0000 0.68183  0.92800  0.25848  Biso   1.000  C
  C76      1.0000 0.59464  0.99644  0.27999  Biso   1.000  C
  C77      1.0000 0.52130  0.04716  0.24463  Biso   1.000  C
  H61      1.0000 0.52730  0.04100  0.20490  Biso   1.000  H
  C78      1.0000 0.43980  0.10659  0.26773  Biso   1.000  C
  H62      1.0000 0.38850  0.14020  0.24400  Biso   1.000  H
  C79      1.0000 0.43390  0.11630  0.32582  Biso   1.000  C
  H63      1.0000 0.37950  0.15690  0.34250  Biso   1.000  H
  C80      1.0000 0.51045  0.06457  0.35909  Biso   1.000  C
  H64      1.0000 0.50640  0.07090  0.39880  Biso   1.000  H
  N13      1.0000 0.85666  0.05114  0.39640  Biso   1.000  N
  N14      1.0000 0.91510  0.87951  0.41921  Biso   1.000  N
  N15      1.0000 0.76194  0.89552  0.29629  Biso   1.000  N
  N16      1.0000 0.59003  0.00596  0.33733  Biso   1.000  N
