data_image0
_cell_length_a       9.405
_cell_length_b       20.389
_cell_length_c       31.799
_cell_angle_alpha    90
_cell_angle_beta     90
_cell_angle_gamma    90

_symmetry_space_group_name_H-M    "P 1"
_symmetry_int_tables_number       1

loop_
  _symmetry_equiv_pos_as_xyz
  'x, y, z'

loop_
  _atom_site_label
  _atom_site_occupancy
  _atom_site_fract_x
  _atom_site_fract_y
  _atom_site_fract_z
  _atom_site_thermal_displace_type
  _atom_site_B_iso_or_equiv
  _atom_site_type_symbol
  Cd1      1.0000 0.00604  0.38513  0.38104  Biso   1.000  Cd
  O1       1.0000 0.94000  0.45402  0.32006  Biso   1.000  O
  O2       1.0000 0.90930  0.49019  0.38361  Biso   1.000  O
  O3       1.0000 0.60210  0.77966  0.11165  Biso   1.000  O
  O4       1.0000 0.57590  0.81468  0.17600  Biso   1.000  O
  N1       1.0000 0.79460  0.59360  0.19636  Biso   1.000  N
  C1       1.0000 0.89830  0.49670  0.34494  Biso   1.000  C
  C2       1.0000 0.83160  0.55850  0.32827  Biso   1.000  C
  C3       1.0000 0.77130  0.60320  0.35558  Biso   1.000  C
  H1       1.0000 0.77740  0.59690  0.38450  Biso   1.000  H
  C4       1.0000 0.82220  0.56930  0.28513  Biso   1.000  C
  H2       1.0000 0.86090  0.53910  0.26640  Biso   1.000  H
  C5       1.0000 0.70200  0.65720  0.33950  Biso   1.000  C
  H3       1.0000 0.65910  0.68660  0.35790  Biso   1.000  H
  C6       1.0000 0.69470  0.66850  0.29754  Biso   1.000  C
  H4       1.0000 0.64860  0.70570  0.28760  Biso   1.000  H
  C7       1.0000 0.75460  0.62560  0.26989  Biso   1.000  C
  C8       1.0000 0.74460  0.63860  0.22392  Biso   1.000  C
  C9       1.0000 0.68470  0.69690  0.20901  Biso   1.000  C
  H5       1.0000 0.65170  0.72810  0.22790  Biso   1.000  H
  C10      1.0000 0.78480  0.60500  0.15377  Biso   1.000  C
  H6       1.0000 0.81970  0.57380  0.13510  Biso   1.000  H
  C11      1.0000 0.72470  0.66140  0.13826  Biso   1.000  C
  H7       1.0000 0.71780  0.66820  0.10940  Biso   1.000  H
  C12      1.0000 0.67450  0.70810  0.16622  Biso   1.000  C
  C13      1.0000 0.61400  0.77180  0.15024  Biso   1.000  C
  Cd2      1.0000 0.50604  0.88513  0.11896  Biso   1.000  Cd
  O5       1.0000 0.44000  0.95402  0.17994  Biso   1.000  O
  O6       1.0000 0.40930  0.99019  0.11639  Biso   1.000  O
  O7       1.0000 0.10210  0.27966  0.38835  Biso   1.000  O
  O8       1.0000 0.07590  0.31468  0.32400  Biso   1.000  O
  N2       1.0000 0.29460  0.09360  0.30364  Biso   1.000  N
  C14      1.0000 0.39830  0.99670  0.15506  Biso   1.000  C
  C15      1.0000 0.33160  0.05850  0.17173  Biso   1.000  C
  C16      1.0000 0.27130  0.10320  0.14442  Biso   1.000  C
  H8       1.0000 0.27740  0.09690  0.11550  Biso   1.000  H
  C17      1.0000 0.32220  0.06930  0.21487  Biso   1.000  C
  H9       1.0000 0.36090  0.03910  0.23360  Biso   1.000  H
  C18      1.0000 0.20200  0.15720  0.16050  Biso   1.000  C
  H10      1.0000 0.15910  0.18660  0.14210  Biso   1.000  H
  C19      1.0000 0.19470  0.16850  0.20246  Biso   1.000  C
  H11      1.0000 0.14860  0.20570  0.21240  Biso   1.000  H
  C20      1.0000 0.25460  0.12560  0.23011  Biso   1.000  C
  C21      1.0000 0.24460  0.13860  0.27608  Biso   1.000  C
  C22      1.0000 0.18470  0.19690  0.29099  Biso   1.000  C
  H12      1.0000 0.15170  0.22810  0.27210  Biso   1.000  H
  C23      1.0000 0.28480  0.10500  0.34623  Biso   1.000  C
  H13      1.0000 0.31970  0.07380  0.36490  Biso   1.000  H
  C24      1.0000 0.22470  0.16140  0.36174  Biso   1.000  C
  H14      1.0000 0.21780  0.16820  0.39060  Biso   1.000  H
  C25      1.0000 0.17450  0.20810  0.33378  Biso   1.000  C
  C26      1.0000 0.11400  0.27180  0.34976  Biso   1.000  C
  Cd3      1.0000 0.49396  0.11487  0.88104  Biso   1.000  Cd
  O9       1.0000 0.56000  0.04598  0.82006  Biso   1.000  O
  O10      1.0000 0.59070  0.00981  0.88361  Biso   1.000  O
  O11      1.0000 0.89790  0.72034  0.61165  Biso   1.000  O
  O12      1.0000 0.92410  0.68532  0.67600  Biso   1.000  O
  N3       1.0000 0.70540  0.90640  0.69636  Biso   1.000  N
  C27      1.0000 0.60170  0.00330  0.84494  Biso   1.000  C
  C28      1.0000 0.66840  0.94150  0.82827  Biso   1.000  C
  C29      1.0000 0.72870  0.89680  0.85558  Biso   1.000  C
  H15      1.0000 0.72260  0.90310  0.88450  Biso   1.000  H
  C30      1.0000 0.67780  0.93070  0.78513  Biso   1.000  C
  H16      1.0000 0.63910  0.96090  0.76640  Biso   1.000  H
  C31      1.0000 0.79800  0.84280  0.83950  Biso   1.000  C
  H17      1.0000 0.84090  0.81340  0.85790  Biso   1.000  H
  C32      1.0000 0.80530  0.83150  0.79754  Biso   1.000  C
  H18      1.0000 0.85140  0.79430  0.78760  Biso   1.000  H
  C33      1.0000 0.74540  0.87440  0.76989  Biso   1.000  C
  C34      1.0000 0.75540  0.86140  0.72392  Biso   1.000  C
  C35      1.0000 0.81530  0.80310  0.70901  Biso   1.000  C
  H19      1.0000 0.84830  0.77190  0.72790  Biso   1.000  H
  C36      1.0000 0.71520  0.89500  0.65377  Biso   1.000  C
  H20      1.0000 0.68030  0.92620  0.63510  Biso   1.000  H
  C37      1.0000 0.77530  0.83860  0.63826  Biso   1.000  C
  H21      1.0000 0.78220  0.83180  0.60940  Biso   1.000  H
  C38      1.0000 0.82550  0.79190  0.66622  Biso   1.000  C
  C39      1.0000 0.88600  0.72820  0.65024  Biso   1.000  C
  Cd4      1.0000 0.99396  0.61487  0.61896  Biso   1.000  Cd
  O13      1.0000 0.06000  0.54598  0.67994  Biso   1.000  O
  O14      1.0000 0.09070  0.50981  0.61639  Biso   1.000  O
  O15      1.0000 0.39790  0.22034  0.88835  Biso   1.000  O
  O16      1.0000 0.42410  0.18532  0.82400  Biso   1.000  O
  N4       1.0000 0.20540  0.40640  0.80364  Biso   1.000  N
  C40      1.0000 0.10170  0.50330  0.65506  Biso   1.000  C
  C41      1.0000 0.16840  0.44150  0.67173  Biso   1.000  C
  C42      1.0000 0.22870  0.39680  0.64442  Biso   1.000  C
  H22      1.0000 0.22260  0.40310  0.61550  Biso   1.000  H
  C43      1.0000 0.17780  0.43070  0.71487  Biso   1.000  C
  H23      1.0000 0.13910  0.46090  0.73360  Biso   1.000  H
  C44      1.0000 0.29800  0.34280  0.66050  Biso   1.000  C
  H24      1.0000 0.34090  0.31340  0.64210  Biso   1.000  H
  C45      1.0000 0.30530  0.33150  0.70246  Biso   1.000  C
  H25      1.0000 0.35140  0.29430  0.71240  Biso   1.000  H
  C46      1.0000 0.24540  0.37440  0.73011  Biso   1.000  C
  C47      1.0000 0.25540  0.36140  0.77608  Biso   1.000  C
  C48      1.0000 0.31530  0.30310  0.79099  Biso   1.000  C
  H26      1.0000 0.34830  0.27190  0.77210  Biso   1.000  H
  C49      1.0000 0.21520  0.39500  0.84623  Biso   1.000  C
  H27      1.0000 0.18030  0.42620  0.86490  Biso   1.000  H
  C50      1.0000 0.27530  0.33860  0.86174  Biso   1.000  C
  H28      1.0000 0.28220  0.33180  0.89060  Biso   1.000  H
  C51      1.0000 0.32550  0.29190  0.83378  Biso   1.000  C
  C52      1.0000 0.38600  0.22820  0.84976  Biso   1.000  C
  Cd5      1.0000 0.99396  0.38513  0.11896  Biso   1.000  Cd
  O17      1.0000 0.06000  0.45402  0.17994  Biso   1.000  O
  O18      1.0000 0.09070  0.49019  0.11639  Biso   1.000  O
  O19      1.0000 0.39790  0.77966  0.38835  Biso   1.000  O
  O20      1.0000 0.42410  0.81468  0.32400  Biso   1.000  O
  N5       1.0000 0.20540  0.59360  0.30364  Biso   1.000  N
  C53      1.0000 0.10170  0.49670  0.15506  Biso   1.000  C
  C54      1.0000 0.16840  0.55850  0.17173  Biso   1.000  C
  C55      1.0000 0.22870  0.60320  0.14442  Biso   1.000  C
  H29      1.0000 0.22260  0.59690  0.11550  Biso   1.000  H
  C56      1.0000 0.17780  0.56930  0.21487  Biso   1.000  C
  H30      1.0000 0.13910  0.53910  0.23360  Biso   1.000  H
  C57      1.0000 0.29800  0.65720  0.16050  Biso   1.000  C
  H31      1.0000 0.34090  0.68660  0.14210  Biso   1.000  H
  C58      1.0000 0.30530  0.66850  0.20246  Biso   1.000  C
  H32      1.0000 0.35140  0.70570  0.21240  Biso   1.000  H
  C59      1.0000 0.24540  0.62560  0.23011  Biso   1.000  C
  C60      1.0000 0.25540  0.63860  0.27608  Biso   1.000  C
  C61      1.0000 0.31530  0.69690  0.29099  Biso   1.000  C
  H33      1.0000 0.34830  0.72810  0.27210  Biso   1.000  H
  C62      1.0000 0.21520  0.60500  0.34623  Biso   1.000  C
  H34      1.0000 0.18030  0.57380  0.36490  Biso   1.000  H
  C63      1.0000 0.27530  0.66140  0.36174  Biso   1.000  C
  H35      1.0000 0.28220  0.66820  0.39060  Biso   1.000  H
  C64      1.0000 0.32550  0.70810  0.33378  Biso   1.000  C
  C65      1.0000 0.38600  0.77180  0.34976  Biso   1.000  C
  Cd6      1.0000 0.49396  0.88513  0.38104  Biso   1.000  Cd
  O21      1.0000 0.56000  0.95402  0.32006  Biso   1.000  O
  O22      1.0000 0.59070  0.99019  0.38361  Biso   1.000  O
  O23      1.0000 0.89790  0.27966  0.11165  Biso   1.000  O
  O24      1.0000 0.92410  0.31468  0.17600  Biso   1.000  O
  N6       1.0000 0.70540  0.09360  0.19636  Biso   1.000  N
  C66      1.0000 0.60170  0.99670  0.34494  Biso   1.000  C
  C67      1.0000 0.66840  0.05850  0.32827  Biso   1.000  C
  C68      1.0000 0.72870  0.10320  0.35558  Biso   1.000  C
  H36      1.0000 0.72260  0.09690  0.38450  Biso   1.000  H
  C69      1.0000 0.67780  0.06930  0.28513  Biso   1.000  C
  H37      1.0000 0.63910  0.03910  0.26640  Biso   1.000  H
  C70      1.0000 0.79800  0.15720  0.33950  Biso   1.000  C
  H38      1.0000 0.84090  0.18660  0.35790  Biso   1.000  H
  C71      1.0000 0.80530  0.16850  0.29754  Biso   1.000  C
  H39      1.0000 0.85140  0.20570  0.28760  Biso   1.000  H
  C72      1.0000 0.74540  0.12560  0.26989  Biso   1.000  C
  C73      1.0000 0.75540  0.13860  0.22392  Biso   1.000  C
  C74      1.0000 0.81530  0.19690  0.20901  Biso   1.000  C
  H40      1.0000 0.84830  0.22810  0.22790  Biso   1.000  H
  C75      1.0000 0.71520  0.10500  0.15377  Biso   1.000  C
  H41      1.0000 0.68030  0.07380  0.13510  Biso   1.000  H
  C76      1.0000 0.77530  0.16140  0.13826  Biso   1.000  C
  H42      1.0000 0.78220  0.16820  0.10940  Biso   1.000  H
  C77      1.0000 0.82550  0.20810  0.16622  Biso   1.000  C
  C78      1.0000 0.88600  0.27180  0.15024  Biso   1.000  C
  Cd7      1.0000 0.50604  0.11487  0.61896  Biso   1.000  Cd
  O25      1.0000 0.44000  0.04598  0.67994  Biso   1.000  O
  O26      1.0000 0.40930  0.00981  0.61639  Biso   1.000  O
  O27      1.0000 0.10210  0.72034  0.88835  Biso   1.000  O
  O28      1.0000 0.07590  0.68532  0.82400  Biso   1.000  O
  N7       1.0000 0.29460  0.90640  0.80364  Biso   1.000  N
  C79      1.0000 0.39830  0.00330  0.65506  Biso   1.000  C
  C80      1.0000 0.33160  0.94150  0.67173  Biso   1.000  C
  C81      1.0000 0.27130  0.89680  0.64442  Biso   1.000  C
  H43      1.0000 0.27740  0.90310  0.61550  Biso   1.000  H
  C82      1.0000 0.32220  0.93070  0.71487  Biso   1.000  C
  H44      1.0000 0.36090  0.96090  0.73360  Biso   1.000  H
  C83      1.0000 0.20200  0.84280  0.66050  Biso   1.000  C
  H45      1.0000 0.15910  0.81340  0.64210  Biso   1.000  H
  C84      1.0000 0.19470  0.83150  0.70246  Biso   1.000  C
  H46      1.0000 0.14860  0.79430  0.71240  Biso   1.000  H
  C85      1.0000 0.25460  0.87440  0.73011  Biso   1.000  C
  C86      1.0000 0.24460  0.86140  0.77608  Biso   1.000  C
  C87      1.0000 0.18470  0.80310  0.79099  Biso   1.000  C
  H47      1.0000 0.15170  0.77190  0.77210  Biso   1.000  H
  C88      1.0000 0.28480  0.89500  0.84623  Biso   1.000  C
  H48      1.0000 0.31970  0.92620  0.86490  Biso   1.000  H
  C89      1.0000 0.22470  0.83860  0.86174  Biso   1.000  C
  H49      1.0000 0.21780  0.83180  0.89060  Biso   1.000  H
  C90      1.0000 0.17450  0.79190  0.83378  Biso   1.000  C
  C91      1.0000 0.11400  0.72820  0.84976  Biso   1.000  C
  Cd8      1.0000 0.00604  0.61487  0.88104  Biso   1.000  Cd
  O29      1.0000 0.94000  0.54598  0.82006  Biso   1.000  O
  O30      1.0000 0.90930  0.50981  0.88361  Biso   1.000  O
  O31      1.0000 0.60210  0.22034  0.61165  Biso   1.000  O
  O32      1.0000 0.57590  0.18532  0.67600  Biso   1.000  O
  N8       1.0000 0.79460  0.40640  0.69636  Biso   1.000  N
  C92      1.0000 0.89830  0.50330  0.84494  Biso   1.000  C
  C93      1.0000 0.83160  0.44150  0.82827  Biso   1.000  C
  C94      1.0000 0.77130  0.39680  0.85558  Biso   1.000  C
  H50      1.0000 0.77740  0.40310  0.88450  Biso   1.000  H
  C95      1.0000 0.82220  0.43070  0.78513  Biso   1.000  C
  H51      1.0000 0.86090  0.46090  0.76640  Biso   1.000  H
  C96      1.0000 0.70200  0.34280  0.83950  Biso   1.000  C
  H52      1.0000 0.65910  0.31340  0.85790  Biso   1.000  H
  C97      1.0000 0.69470  0.33150  0.79754  Biso   1.000  C
  H53      1.0000 0.64860  0.29430  0.78760  Biso   1.000  H
  C98      1.0000 0.75460  0.37440  0.76989  Biso   1.000  C
  C99      1.0000 0.74460  0.36140  0.72392  Biso   1.000  C
  C100     1.0000 0.68470  0.30310  0.70901  Biso   1.000  C
  H54      1.0000 0.65170  0.27190  0.72790  Biso   1.000  H
  C101     1.0000 0.78480  0.39500  0.65377  Biso   1.000  C
  H55      1.0000 0.81970  0.42620  0.63510  Biso   1.000  H
  C102     1.0000 0.72470  0.33860  0.63826  Biso   1.000  C
  H56      1.0000 0.71780  0.33180  0.60940  Biso   1.000  H
  C103     1.0000 0.67450  0.29190  0.66622  Biso   1.000  C
  C104     1.0000 0.61400  0.22820  0.65024  Biso   1.000  C
