data_image0
_cell_length_a       22.771
_cell_length_b       13.153
_cell_length_c       15.402
_cell_angle_alpha    90
_cell_angle_beta     130.597
_cell_angle_gamma    90

_symmetry_space_group_name_H-M    "P 1"
_symmetry_int_tables_number       1

loop_
  _symmetry_equiv_pos_as_xyz
  'x, y, z'

loop_
  _atom_site_label
  _atom_site_occupancy
  _atom_site_fract_x
  _atom_site_fract_y
  _atom_site_fract_z
  _atom_site_thermal_displace_type
  _atom_site_B_iso_or_equiv
  _atom_site_type_symbol
  Ru1      1.0000 0.64504  0.67051  0.83701  Biso   1.000  Ru
  O1       1.0000 0.03140  0.50160  0.15150  Biso   1.000  O
  O2       1.0000 0.04230  0.60200  0.27660  Biso   1.000  O
  O3       1.0000 0.83670  0.70030  0.41170  Biso   1.000  O
  O4       1.0000 0.74750  0.81260  0.36400  Biso   1.000  O
  N1       1.0000 0.53580  0.73350  0.74280  Biso   1.000  N
  N2       1.0000 0.66050  0.80430  0.78830  Biso   1.000  N
  N3       1.0000 0.61550  0.59100  0.69680  Biso   1.000  N
  N4       1.0000 0.61240  0.53160  0.85740  Biso   1.000  N
  N5       1.0000 0.75860  0.62100  0.93950  Biso   1.000  N
  N6       1.0000 0.68640  0.72400  0.99380  Biso   1.000  N
  C1       1.0000 0.47570  0.69300  0.73040  Biso   1.000  C
  H1       1.0000 0.48300  0.62990  0.76630  Biso   1.000  H
  C2       1.0000 0.40410  0.74060  0.66720  Biso   1.000  C
  H2       1.0000 0.36340  0.71240  0.66190  Biso   1.000  H
  C3       1.0000 0.39450  0.82740  0.61420  Biso   1.000  C
  H3       1.0000 0.34510  0.85920  0.56720  Biso   1.000  H
  C4       1.0000 0.45560  0.87350  0.62580  Biso   1.000  C
  H4       1.0000 0.44860  0.93630  0.58950  Biso   1.000  H
  C5       1.0000 0.52620  0.82320  0.69240  Biso   1.000  C
  C6       1.0000 0.59520  0.86160  0.71410  Biso   1.000  C
  C7       1.0000 0.59670  0.94910  0.66350  Biso   1.000  C
  H5       1.0000 0.55120  0.98860  0.61290  Biso   1.000  H
  C8       1.0000 0.66360  0.97800  0.68660  Biso   1.000  C
  H6       1.0000 0.66400  0.03540  0.64960  Biso   1.000  H
  C9       1.0000 0.73040  0.92210  0.76470  Biso   1.000  C
  H7       1.0000 0.77790  0.94200  0.78460  Biso   1.000  H
  C10      1.0000 0.72630  0.83650  0.81320  Biso   1.000  C
  H8       1.0000 0.77230  0.79850  0.86680  Biso   1.000  H
  C11      1.0000 0.62280  0.62570  0.62180  Biso   1.000  C
  H9       1.0000 0.63300  0.69570  0.62220  Biso   1.000  H
  C12      1.0000 0.61560  0.56000  0.54300  Biso   1.000  C
  H10      1.0000 0.62110  0.58550  0.49090  Biso   1.000  H
  C13      1.0000 0.60060  0.45940  0.54260  Biso   1.000  C
  H11      1.0000 0.59720  0.41380  0.49160  Biso   1.000  H
  C14      1.0000 0.59050  0.42380  0.61720  Biso   1.000  C
  H12      1.0000 0.57860  0.35440  0.61610  Biso   1.000  H
  C15      1.0000 0.59790  0.49080  0.69250  Biso   1.000  C
  C16      1.0000 0.58920  0.46140  0.77590  Biso   1.000  C
  C17      1.0000 0.55610  0.37060  0.76950  Biso   1.000  C
  H13      1.0000 0.53980  0.32310  0.71110  Biso   1.000  H
  C18      1.0000 0.54630  0.34780  0.84780  Biso   1.000  C
  H14      1.0000 0.52160  0.28700  0.84250  Biso   1.000  H
  C19      1.0000 0.57510  0.41970  0.93590  Biso   1.000  C
  H15      1.0000 0.57300  0.40590  0.99440  Biso   1.000  H
  C20      1.0000 0.60560  0.50900  0.93610  Biso   1.000  C
  H16      1.0000 0.62280  0.55740  0.99420  Biso   1.000  H
  C21      1.0000 0.79490  0.57570  0.90700  Biso   1.000  C
  H17      1.0000 0.76550  0.56040  0.82820  Biso   1.000  H
  C22      1.0000 0.87210  0.55060  0.98180  Biso   1.000  C
  H18      1.0000 0.89440  0.51630  0.95520  Biso   1.000  H
  C23      1.0000 0.91750  0.57600  0.09780  Biso   1.000  C
  C24      1.0000 0.00390  0.55520  0.18160  Biso   1.000  C
  C25      1.0000 0.87990  0.61860  0.13220  Biso   1.000  C
  H19      1.0000 0.90790  0.63130  0.21110  Biso   1.000  H
  C26      1.0000 0.80190  0.64310  0.05320  Biso   1.000  C
  C27      1.0000 0.76070  0.69450  0.08400  Biso   1.000  C
  C28      1.0000 0.79200  0.71000  0.19580  Biso   1.000  C
  H20      1.0000 0.84370  0.68960  0.25730  Biso   1.000  H
  C29      1.0000 0.74850  0.75490  0.21820  Biso   1.000  C
  C30      1.0000 0.78000  0.75830  0.34220  Biso   1.000  C
  C31      1.0000 0.67500  0.78930  0.12760  Biso   1.000  C
  H21      1.0000 0.64490  0.82390  0.14090  Biso   1.000  H
  C32      1.0000 0.64590  0.77210  0.01660  Biso   1.000  C
  H22      1.0000 0.59540  0.79540  0.95450  Biso   1.000  H
  Ru2      1.0000 0.14504  0.17051  0.83701  Biso   1.000  Ru
  O5       1.0000 0.53140  0.00160  0.15150  Biso   1.000  O
  O6       1.0000 0.54230  0.10200  0.27660  Biso   1.000  O
  O7       1.0000 0.33670  0.20030  0.41170  Biso   1.000  O
  O8       1.0000 0.24750  0.31260  0.36400  Biso   1.000  O
  N7       1.0000 0.03580  0.23350  0.74280  Biso   1.000  N
  N8       1.0000 0.16050  0.30430  0.78830  Biso   1.000  N
  N9       1.0000 0.11550  0.09100  0.69680  Biso   1.000  N
  N10      1.0000 0.11240  0.03160  0.85740  Biso   1.000  N
  N11      1.0000 0.25860  0.12100  0.93950  Biso   1.000  N
  N12      1.0000 0.18640  0.22400  0.99380  Biso   1.000  N
  C33      1.0000 0.97570  0.19300  0.73040  Biso   1.000  C
  H23      1.0000 0.98300  0.12990  0.76630  Biso   1.000  H
  C34      1.0000 0.90410  0.24060  0.66720  Biso   1.000  C
  H24      1.0000 0.86340  0.21240  0.66190  Biso   1.000  H
  C35      1.0000 0.89450  0.32740  0.61420  Biso   1.000  C
  H25      1.0000 0.84510  0.35920  0.56720  Biso   1.000  H
  C36      1.0000 0.95560  0.37350  0.62580  Biso   1.000  C
  H26      1.0000 0.94860  0.43630  0.58950  Biso   1.000  H
  C37      1.0000 0.02620  0.32320  0.69240  Biso   1.000  C
  C38      1.0000 0.09520  0.36160  0.71410  Biso   1.000  C
  C39      1.0000 0.09670  0.44910  0.66350  Biso   1.000  C
  H27      1.0000 0.05120  0.48860  0.61290  Biso   1.000  H
  C40      1.0000 0.16360  0.47800  0.68660  Biso   1.000  C
  H28      1.0000 0.16400  0.53540  0.64960  Biso   1.000  H
  C41      1.0000 0.23040  0.42210  0.76470  Biso   1.000  C
  H29      1.0000 0.27790  0.44200  0.78460  Biso   1.000  H
  C42      1.0000 0.22630  0.33650  0.81320  Biso   1.000  C
  H30      1.0000 0.27230  0.29850  0.86680  Biso   1.000  H
  C43      1.0000 0.12280  0.12570  0.62180  Biso   1.000  C
  H31      1.0000 0.13300  0.19570  0.62220  Biso   1.000  H
  C44      1.0000 0.11560  0.06000  0.54300  Biso   1.000  C
  H32      1.0000 0.12110  0.08550  0.49090  Biso   1.000  H
  C45      1.0000 0.10060  0.95940  0.54260  Biso   1.000  C
  H33      1.0000 0.09720  0.91380  0.49160  Biso   1.000  H
  C46      1.0000 0.09050  0.92380  0.61720  Biso   1.000  C
  H34      1.0000 0.07860  0.85440  0.61610  Biso   1.000  H
  C47      1.0000 0.09790  0.99080  0.69250  Biso   1.000  C
  C48      1.0000 0.08920  0.96140  0.77590  Biso   1.000  C
  C49      1.0000 0.05610  0.87060  0.76950  Biso   1.000  C
  H35      1.0000 0.03980  0.82310  0.71110  Biso   1.000  H
  C50      1.0000 0.04630  0.84780  0.84780  Biso   1.000  C
  H36      1.0000 0.02160  0.78700  0.84250  Biso   1.000  H
  C51      1.0000 0.07510  0.91970  0.93590  Biso   1.000  C
  H37      1.0000 0.07300  0.90590  0.99440  Biso   1.000  H
  C52      1.0000 0.10560  0.00900  0.93610  Biso   1.000  C
  H38      1.0000 0.12280  0.05740  0.99420  Biso   1.000  H
  C53      1.0000 0.29490  0.07570  0.90700  Biso   1.000  C
  H39      1.0000 0.26550  0.06040  0.82820  Biso   1.000  H
  C54      1.0000 0.37210  0.05060  0.98180  Biso   1.000  C
  H40      1.0000 0.39440  0.01630  0.95520  Biso   1.000  H
  C55      1.0000 0.41750  0.07600  0.09780  Biso   1.000  C
  C56      1.0000 0.50390  0.05520  0.18160  Biso   1.000  C
  C57      1.0000 0.37990  0.11860  0.13220  Biso   1.000  C
  H41      1.0000 0.40790  0.13130  0.21110  Biso   1.000  H
  C58      1.0000 0.30190  0.14310  0.05320  Biso   1.000  C
  C59      1.0000 0.26070  0.19450  0.08400  Biso   1.000  C
  C60      1.0000 0.29200  0.21000  0.19580  Biso   1.000  C
  H42      1.0000 0.34370  0.18960  0.25730  Biso   1.000  H
  C61      1.0000 0.24850  0.25490  0.21820  Biso   1.000  C
  C62      1.0000 0.28000  0.25830  0.34220  Biso   1.000  C
  C63      1.0000 0.17500  0.28930  0.12760  Biso   1.000  C
  H43      1.0000 0.14490  0.32390  0.14090  Biso   1.000  H
  C64      1.0000 0.14590  0.27210  0.01660  Biso   1.000  C
  H44      1.0000 0.09540  0.29540  0.95450  Biso   1.000  H
  Ru3      1.0000 0.35496  0.67051  0.16299  Biso   1.000  Ru
  O9       1.0000 0.96860  0.50160  0.84850  Biso   1.000  O
  O10      1.0000 0.95770  0.60200  0.72340  Biso   1.000  O
  O11      1.0000 0.16330  0.70030  0.58830  Biso   1.000  O
  O12      1.0000 0.25250  0.81260  0.63600  Biso   1.000  O
  N13      1.0000 0.46420  0.73350  0.25720  Biso   1.000  N
  N14      1.0000 0.33950  0.80430  0.21170  Biso   1.000  N
  N15      1.0000 0.38450  0.59100  0.30320  Biso   1.000  N
  N16      1.0000 0.38760  0.53160  0.14260  Biso   1.000  N
  N17      1.0000 0.24140  0.62100  0.06050  Biso   1.000  N
  N18      1.0000 0.31360  0.72400  0.00620  Biso   1.000  N
  C65      1.0000 0.52430  0.69300  0.26960  Biso   1.000  C
  H45      1.0000 0.51700  0.62990  0.23370  Biso   1.000  H
  C66      1.0000 0.59590  0.74060  0.33280  Biso   1.000  C
  H46      1.0000 0.63660  0.71240  0.33810  Biso   1.000  H
  C67      1.0000 0.60550  0.82740  0.38580  Biso   1.000  C
  H47      1.0000 0.65490  0.85920  0.43280  Biso   1.000  H
  C68      1.0000 0.54440  0.87350  0.37420  Biso   1.000  C
  H48      1.0000 0.55140  0.93630  0.41050  Biso   1.000  H
  C69      1.0000 0.47380  0.82320  0.30760  Biso   1.000  C
  C70      1.0000 0.40480  0.86160  0.28590  Biso   1.000  C
  C71      1.0000 0.40330  0.94910  0.33650  Biso   1.000  C
  H49      1.0000 0.44880  0.98860  0.38710  Biso   1.000  H
  C72      1.0000 0.33640  0.97800  0.31340  Biso   1.000  C
  H50      1.0000 0.33600  0.03540  0.35040  Biso   1.000  H
  C73      1.0000 0.26960  0.92210  0.23530  Biso   1.000  C
  H51      1.0000 0.22210  0.94200  0.21540  Biso   1.000  H
  C74      1.0000 0.27370  0.83650  0.18680  Biso   1.000  C
  H52      1.0000 0.22770  0.79850  0.13320  Biso   1.000  H
  C75      1.0000 0.37720  0.62570  0.37820  Biso   1.000  C
  H53      1.0000 0.36700  0.69570  0.37780  Biso   1.000  H
  C76      1.0000 0.38440  0.56000  0.45700  Biso   1.000  C
  H54      1.0000 0.37890  0.58550  0.50910  Biso   1.000  H
  C77      1.0000 0.39940  0.45940  0.45740  Biso   1.000  C
  H55      1.0000 0.40280  0.41380  0.50840  Biso   1.000  H
  C78      1.0000 0.40950  0.42380  0.38280  Biso   1.000  C
  H56      1.0000 0.42140  0.35440  0.38390  Biso   1.000  H
  C79      1.0000 0.40210  0.49080  0.30750  Biso   1.000  C
  C80      1.0000 0.41080  0.46140  0.22410  Biso   1.000  C
  C81      1.0000 0.44390  0.37060  0.23050  Biso   1.000  C
  H57      1.0000 0.46020  0.32310  0.28890  Biso   1.000  H
  C82      1.0000 0.45370  0.34780  0.15220  Biso   1.000  C
  H58      1.0000 0.47840  0.28700  0.15750  Biso   1.000  H
  C83      1.0000 0.42490  0.41970  0.06410  Biso   1.000  C
  H59      1.0000 0.42700  0.40590  0.00560  Biso   1.000  H
  C84      1.0000 0.39440  0.50900  0.06390  Biso   1.000  C
  H60      1.0000 0.37720  0.55740  0.00580  Biso   1.000  H
  C85      1.0000 0.20510  0.57570  0.09300  Biso   1.000  C
  H61      1.0000 0.23450  0.56040  0.17180  Biso   1.000  H
  C86      1.0000 0.12790  0.55060  0.01820  Biso   1.000  C
  H62      1.0000 0.10560  0.51630  0.04480  Biso   1.000  H
  C87      1.0000 0.08250  0.57600  0.90220  Biso   1.000  C
  C88      1.0000 0.99610  0.55520  0.81840  Biso   1.000  C
  C89      1.0000 0.12010  0.61860  0.86780  Biso   1.000  C
  H63      1.0000 0.09210  0.63130  0.78890  Biso   1.000  H
  C90      1.0000 0.19810  0.64310  0.94680  Biso   1.000  C
  C91      1.0000 0.23930  0.69450  0.91600  Biso   1.000  C
  C92      1.0000 0.20800  0.71000  0.80420  Biso   1.000  C
  H64      1.0000 0.15630  0.68960  0.74270  Biso   1.000  H
  C93      1.0000 0.25150  0.75490  0.78180  Biso   1.000  C
  C94      1.0000 0.22000  0.75830  0.65780  Biso   1.000  C
  C95      1.0000 0.32500  0.78930  0.87240  Biso   1.000  C
  H65      1.0000 0.35510  0.82390  0.85910  Biso   1.000  H
  C96      1.0000 0.35410  0.77210  0.98340  Biso   1.000  C
  H66      1.0000 0.40460  0.79540  0.04550  Biso   1.000  H
  Ru4      1.0000 0.85496  0.17051  0.16299  Biso   1.000  Ru
  O13      1.0000 0.46860  0.00160  0.84850  Biso   1.000  O
  O14      1.0000 0.45770  0.10200  0.72340  Biso   1.000  O
  O15      1.0000 0.66330  0.20030  0.58830  Biso   1.000  O
  O16      1.0000 0.75250  0.31260  0.63600  Biso   1.000  O
  N19      1.0000 0.96420  0.23350  0.25720  Biso   1.000  N
  N20      1.0000 0.83950  0.30430  0.21170  Biso   1.000  N
  N21      1.0000 0.88450  0.09100  0.30320  Biso   1.000  N
  N22      1.0000 0.88760  0.03160  0.14260  Biso   1.000  N
  N23      1.0000 0.74140  0.12100  0.06050  Biso   1.000  N
  N24      1.0000 0.81360  0.22400  0.00620  Biso   1.000  N
  C97      1.0000 0.02430  0.19300  0.26960  Biso   1.000  C
  H67      1.0000 0.01700  0.12990  0.23370  Biso   1.000  H
  C98      1.0000 0.09590  0.24060  0.33280  Biso   1.000  C
  H68      1.0000 0.13660  0.21240  0.33810  Biso   1.000  H
  C99      1.0000 0.10550  0.32740  0.38580  Biso   1.000  C
  H69      1.0000 0.15490  0.35920  0.43280  Biso   1.000  H
  C100     1.0000 0.04440  0.37350  0.37420  Biso   1.000  C
  H70      1.0000 0.05140  0.43630  0.41050  Biso   1.000  H
  C101     1.0000 0.97380  0.32320  0.30760  Biso   1.000  C
  C102     1.0000 0.90480  0.36160  0.28590  Biso   1.000  C
  C103     1.0000 0.90330  0.44910  0.33650  Biso   1.000  C
  H71      1.0000 0.94880  0.48860  0.38710  Biso   1.000  H
  C104     1.0000 0.83640  0.47800  0.31340  Biso   1.000  C
  H72      1.0000 0.83600  0.53540  0.35040  Biso   1.000  H
  C105     1.0000 0.76960  0.42210  0.23530  Biso   1.000  C
  H73      1.0000 0.72210  0.44200  0.21540  Biso   1.000  H
  C106     1.0000 0.77370  0.33650  0.18680  Biso   1.000  C
  H74      1.0000 0.72770  0.29850  0.13320  Biso   1.000  H
  C107     1.0000 0.87720  0.12570  0.37820  Biso   1.000  C
  H75      1.0000 0.86700  0.19570  0.37780  Biso   1.000  H
  C108     1.0000 0.88440  0.06000  0.45700  Biso   1.000  C
  H76      1.0000 0.87890  0.08550  0.50910  Biso   1.000  H
  C109     1.0000 0.89940  0.95940  0.45740  Biso   1.000  C
  H77      1.0000 0.90280  0.91380  0.50840  Biso   1.000  H
  C110     1.0000 0.90950  0.92380  0.38280  Biso   1.000  C
  H78      1.0000 0.92140  0.85440  0.38390  Biso   1.000  H
  C111     1.0000 0.90210  0.99080  0.30750  Biso   1.000  C
  C112     1.0000 0.91080  0.96140  0.22410  Biso   1.000  C
  C113     1.0000 0.94390  0.87060  0.23050  Biso   1.000  C
  H79      1.0000 0.96020  0.82310  0.28890  Biso   1.000  H
  C114     1.0000 0.95370  0.84780  0.15220  Biso   1.000  C
  H80      1.0000 0.97840  0.78700  0.15750  Biso   1.000  H
  C115     1.0000 0.92490  0.91970  0.06410  Biso   1.000  C
  H81      1.0000 0.92700  0.90590  0.00560  Biso   1.000  H
  C116     1.0000 0.89440  0.00900  0.06390  Biso   1.000  C
  H82      1.0000 0.87720  0.05740  0.00580  Biso   1.000  H
  C117     1.0000 0.70510  0.07570  0.09300  Biso   1.000  C
  H83      1.0000 0.73450  0.06040  0.17180  Biso   1.000  H
  C118     1.0000 0.62790  0.05060  0.01820  Biso   1.000  C
  H84      1.0000 0.60560  0.01630  0.04480  Biso   1.000  H
  C119     1.0000 0.58250  0.07600  0.90220  Biso   1.000  C
  C120     1.0000 0.49610  0.05520  0.81840  Biso   1.000  C
  C121     1.0000 0.62010  0.11860  0.86780  Biso   1.000  C
  H85      1.0000 0.59210  0.13130  0.78890  Biso   1.000  H
  C122     1.0000 0.69810  0.14310  0.94680  Biso   1.000  C
  C123     1.0000 0.73930  0.19450  0.91600  Biso   1.000  C
  C124     1.0000 0.70800  0.21000  0.80420  Biso   1.000  C
  H86      1.0000 0.65630  0.18960  0.74270  Biso   1.000  H
  C125     1.0000 0.75150  0.25490  0.78180  Biso   1.000  C
  C126     1.0000 0.72000  0.25830  0.65780  Biso   1.000  C
  C127     1.0000 0.82500  0.28930  0.87240  Biso   1.000  C
  H87      1.0000 0.85510  0.32390  0.85910  Biso   1.000  H
  C128     1.0000 0.85410  0.27210  0.98340  Biso   1.000  C
  H88      1.0000 0.90460  0.29540  0.04550  Biso   1.000  H
