data_image0
_cell_length_a       19.95
_cell_length_b       22.639
_cell_length_c       10.833
_cell_angle_alpha    90
_cell_angle_beta     93.9
_cell_angle_gamma    90

_symmetry_space_group_name_H-M    "P 1"
_symmetry_int_tables_number       1

loop_
  _symmetry_equiv_pos_as_xyz
  'x, y, z'

loop_
  _atom_site_label
  _atom_site_occupancy
  _atom_site_fract_x
  _atom_site_fract_y
  _atom_site_fract_z
  _atom_site_thermal_displace_type
  _atom_site_B_iso_or_equiv
  _atom_site_type_symbol
  C1       1.0000 0.30590  0.34476  0.96010  Biso   1.000  C
  C2       1.0000 0.30730  0.36005  0.08550  Biso   1.000  C
  H1       1.0000 0.34790  0.37480  0.12490  Biso   1.000  H
  C3       1.0000 0.25080  0.35428  0.15490  Biso   1.000  C
  C4       1.0000 0.19210  0.33090  0.09890  Biso   1.000  C
  H2       1.0000 0.15400  0.32560  0.14570  Biso   1.000  H
  B1       1.0000 0.37220  0.34770  0.88580  Biso   1.000  B
  C5       1.0000 0.24490  0.32260  0.90630  Biso   1.000  C
  H3       1.0000 0.24180  0.31250  0.82110  Biso   1.000  H
  C6       1.0000 0.18900  0.31520  0.97470  Biso   1.000  C
  H4       1.0000 0.14860  0.29950  0.93640  Biso   1.000  H
  O1       1.0000 0.40489  0.40798  0.90080  Biso   1.000  O
  N1       1.0000 0.45865  0.41381  0.82740  Biso   1.000  N
  C7       1.0000 0.47470  0.46740  0.79470  Biso   1.000  C
  C8       1.0000 0.44510  0.52320  0.84220  Biso   1.000  C
  H5       1.0000 0.44070  0.51960  0.93240  Biso   1.000  H
  H6       1.0000 0.39960  0.52920  0.80160  Biso   1.000  H
  O2       1.0000 0.20273  0.36230  0.34800  Biso   1.000  O
  H7       1.0000 0.20660  0.37840  0.41800  Biso   1.000  H
  O3       1.0000 0.30500  0.40109  0.33230  Biso   1.000  O
  C9       1.0000 0.25570  0.37460  0.28730  Biso   1.000  C
  C10      1.0000 0.48960  0.57670  0.81640  Biso   1.000  C
  H8       1.0000 0.46470  0.61350  0.83180  Biso   1.000  H
  H9       1.0000 0.53030  0.57590  0.87400  Biso   1.000  H
  O4       1.0000 0.35497  0.33558  0.75260  Biso   1.000  O
  N2       1.0000 0.41122  0.32770  0.68740  Biso   1.000  N
  C11      1.0000 0.40340  0.29673  0.58600  Biso   1.000  C
  C12      1.0000 0.46720  0.28674  0.53120  Biso   1.000  C
  N3       1.0000 0.51774  0.30519  0.60450  Biso   1.000  N
  O5       1.0000 0.58050  0.30144  0.55840  Biso   1.000  O
  C13      1.0000 0.33820  0.27250  0.53050  Biso   1.000  C
  H10      1.0000 0.30810  0.30550  0.50330  Biso   1.000  H
  H11      1.0000 0.31580  0.24950  0.59370  Biso   1.000  H
  C14      1.0000 0.35000  0.23250  0.41940  Biso   1.000  C
  H12      1.0000 0.36420  0.19300  0.45020  Biso   1.000  H
  H13      1.0000 0.30710  0.22770  0.36890  Biso   1.000  H
  C15      1.0000 0.47190  0.25910  0.40700  Biso   1.000  C
  H14      1.0000 0.49060  0.21880  0.41680  Biso   1.000  H
  H15      1.0000 0.50240  0.28260  0.35810  Biso   1.000  H
  C16      1.0000 0.40220  0.25610  0.33830  Biso   1.000  C
  H16      1.0000 0.38890  0.29610  0.30910  Biso   1.000  H
  H17      1.0000 0.40440  0.23030  0.26490  Biso   1.000  H
  C17      1.0000 0.69410  0.34476  0.53990  Biso   1.000  C
  C18      1.0000 0.69270  0.36005  0.41450  Biso   1.000  C
  H18      1.0000 0.65210  0.37480  0.37510  Biso   1.000  H
  C19      1.0000 0.74920  0.35428  0.34510  Biso   1.000  C
  C20      1.0000 0.80790  0.33090  0.40110  Biso   1.000  C
  H19      1.0000 0.84600  0.32560  0.35430  Biso   1.000  H
  B2       1.0000 0.62780  0.34770  0.61420  Biso   1.000  B
  C21      1.0000 0.75510  0.32260  0.59370  Biso   1.000  C
  H20      1.0000 0.75820  0.31250  0.67890  Biso   1.000  H
  C22      1.0000 0.81100  0.31520  0.52530  Biso   1.000  C
  H21      1.0000 0.85140  0.29950  0.56360  Biso   1.000  H
  O6       1.0000 0.59511  0.40798  0.59920  Biso   1.000  O
  N4       1.0000 0.54135  0.41381  0.67260  Biso   1.000  N
  C23      1.0000 0.52530  0.46740  0.70530  Biso   1.000  C
  C24      1.0000 0.55490  0.52320  0.65780  Biso   1.000  C
  H22      1.0000 0.55930  0.51960  0.56760  Biso   1.000  H
  H23      1.0000 0.60040  0.52920  0.69840  Biso   1.000  H
  O7       1.0000 0.79727  0.36230  0.15200  Biso   1.000  O
  H24      1.0000 0.79340  0.37840  0.08200  Biso   1.000  H
  O8       1.0000 0.69500  0.40109  0.16770  Biso   1.000  O
  C25      1.0000 0.74430  0.37460  0.21270  Biso   1.000  C
  C26      1.0000 0.51040  0.57670  0.68360  Biso   1.000  C
  H25      1.0000 0.53530  0.61350  0.66820  Biso   1.000  H
  H26      1.0000 0.46970  0.57590  0.62600  Biso   1.000  H
  O9       1.0000 0.64503  0.33558  0.74740  Biso   1.000  O
  N5       1.0000 0.58878  0.32770  0.81260  Biso   1.000  N
  C27      1.0000 0.59660  0.29673  0.91400  Biso   1.000  C
  C28      1.0000 0.53280  0.28674  0.96880  Biso   1.000  C
  N6       1.0000 0.48226  0.30519  0.89550  Biso   1.000  N
  O10      1.0000 0.41950  0.30144  0.94160  Biso   1.000  O
  C29      1.0000 0.66180  0.27250  0.96950  Biso   1.000  C
  H27      1.0000 0.69190  0.30550  0.99670  Biso   1.000  H
  H28      1.0000 0.68420  0.24950  0.90630  Biso   1.000  H
  C30      1.0000 0.65000  0.23250  0.08060  Biso   1.000  C
  H29      1.0000 0.63580  0.19300  0.04980  Biso   1.000  H
  H30      1.0000 0.69290  0.22770  0.13110  Biso   1.000  H
  C31      1.0000 0.52810  0.25910  0.09300  Biso   1.000  C
  H31      1.0000 0.50940  0.21880  0.08320  Biso   1.000  H
  H32      1.0000 0.49760  0.28260  0.14190  Biso   1.000  H
  C32      1.0000 0.59780  0.25610  0.16170  Biso   1.000  C
  H33      1.0000 0.61110  0.29610  0.19090  Biso   1.000  H
  H34      1.0000 0.59560  0.23030  0.23510  Biso   1.000  H
  Fe1      1.0000 0.50000  0.34839  0.75000  Biso   1.000  Fe
  C33      1.0000 0.80590  0.84476  0.96010  Biso   1.000  C
  C34      1.0000 0.80730  0.86005  0.08550  Biso   1.000  C
  H35      1.0000 0.84790  0.87480  0.12490  Biso   1.000  H
  C35      1.0000 0.75080  0.85428  0.15490  Biso   1.000  C
  C36      1.0000 0.69210  0.83090  0.09890  Biso   1.000  C
  H36      1.0000 0.65400  0.82560  0.14570  Biso   1.000  H
  B3       1.0000 0.87220  0.84770  0.88580  Biso   1.000  B
  C37      1.0000 0.74490  0.82260  0.90630  Biso   1.000  C
  H37      1.0000 0.74180  0.81250  0.82110  Biso   1.000  H
  C38      1.0000 0.68900  0.81520  0.97470  Biso   1.000  C
  H38      1.0000 0.64860  0.79950  0.93640  Biso   1.000  H
  O11      1.0000 0.90489  0.90798  0.90080  Biso   1.000  O
  N7       1.0000 0.95865  0.91381  0.82740  Biso   1.000  N
  C39      1.0000 0.97470  0.96740  0.79470  Biso   1.000  C
  C40      1.0000 0.94510  0.02320  0.84220  Biso   1.000  C
  H39      1.0000 0.94070  0.01960  0.93240  Biso   1.000  H
  H40      1.0000 0.89960  0.02920  0.80160  Biso   1.000  H
  O12      1.0000 0.70273  0.86230  0.34800  Biso   1.000  O
  H41      1.0000 0.70660  0.87840  0.41800  Biso   1.000  H
  O13      1.0000 0.80500  0.90109  0.33230  Biso   1.000  O
  C41      1.0000 0.75570  0.87460  0.28730  Biso   1.000  C
  C42      1.0000 0.98960  0.07670  0.81640  Biso   1.000  C
  H42      1.0000 0.96470  0.11350  0.83180  Biso   1.000  H
  H43      1.0000 0.03030  0.07590  0.87400  Biso   1.000  H
  O14      1.0000 0.85497  0.83558  0.75260  Biso   1.000  O
  N8       1.0000 0.91122  0.82770  0.68740  Biso   1.000  N
  C43      1.0000 0.90340  0.79673  0.58600  Biso   1.000  C
  C44      1.0000 0.96720  0.78674  0.53120  Biso   1.000  C
  N9       1.0000 0.01774  0.80519  0.60450  Biso   1.000  N
  O15      1.0000 0.08050  0.80144  0.55840  Biso   1.000  O
  C45      1.0000 0.83820  0.77250  0.53050  Biso   1.000  C
  H44      1.0000 0.80810  0.80550  0.50330  Biso   1.000  H
  H45      1.0000 0.81580  0.74950  0.59370  Biso   1.000  H
  C46      1.0000 0.85000  0.73250  0.41940  Biso   1.000  C
  H46      1.0000 0.86420  0.69300  0.45020  Biso   1.000  H
  H47      1.0000 0.80710  0.72770  0.36890  Biso   1.000  H
  C47      1.0000 0.97190  0.75910  0.40700  Biso   1.000  C
  H48      1.0000 0.99060  0.71880  0.41680  Biso   1.000  H
  H49      1.0000 0.00240  0.78260  0.35810  Biso   1.000  H
  C48      1.0000 0.90220  0.75610  0.33830  Biso   1.000  C
  H50      1.0000 0.88890  0.79610  0.30910  Biso   1.000  H
  H51      1.0000 0.90440  0.73030  0.26490  Biso   1.000  H
  C49      1.0000 0.19410  0.84476  0.53990  Biso   1.000  C
  C50      1.0000 0.19270  0.86005  0.41450  Biso   1.000  C
  H52      1.0000 0.15210  0.87480  0.37510  Biso   1.000  H
  C51      1.0000 0.24920  0.85428  0.34510  Biso   1.000  C
  C52      1.0000 0.30790  0.83090  0.40110  Biso   1.000  C
  H53      1.0000 0.34600  0.82560  0.35430  Biso   1.000  H
  B4       1.0000 0.12780  0.84770  0.61420  Biso   1.000  B
  C53      1.0000 0.25510  0.82260  0.59370  Biso   1.000  C
  H54      1.0000 0.25820  0.81250  0.67890  Biso   1.000  H
  C54      1.0000 0.31100  0.81520  0.52530  Biso   1.000  C
  H55      1.0000 0.35140  0.79950  0.56360  Biso   1.000  H
  O16      1.0000 0.09511  0.90798  0.59920  Biso   1.000  O
  N10      1.0000 0.04135  0.91381  0.67260  Biso   1.000  N
  C55      1.0000 0.02530  0.96740  0.70530  Biso   1.000  C
  C56      1.0000 0.05490  0.02320  0.65780  Biso   1.000  C
  H56      1.0000 0.05930  0.01960  0.56760  Biso   1.000  H
  H57      1.0000 0.10040  0.02920  0.69840  Biso   1.000  H
  O17      1.0000 0.29727  0.86230  0.15200  Biso   1.000  O
  H58      1.0000 0.29340  0.87840  0.08200  Biso   1.000  H
  O18      1.0000 0.19500  0.90109  0.16770  Biso   1.000  O
  C57      1.0000 0.24430  0.87460  0.21270  Biso   1.000  C
  C58      1.0000 0.01040  0.07670  0.68360  Biso   1.000  C
  H59      1.0000 0.03530  0.11350  0.66820  Biso   1.000  H
  H60      1.0000 0.96970  0.07590  0.62600  Biso   1.000  H
  O19      1.0000 0.14503  0.83558  0.74740  Biso   1.000  O
  N11      1.0000 0.08878  0.82770  0.81260  Biso   1.000  N
  C59      1.0000 0.09660  0.79673  0.91400  Biso   1.000  C
  C60      1.0000 0.03280  0.78674  0.96880  Biso   1.000  C
  N12      1.0000 0.98226  0.80519  0.89550  Biso   1.000  N
  O20      1.0000 0.91950  0.80144  0.94160  Biso   1.000  O
  C61      1.0000 0.16180  0.77250  0.96950  Biso   1.000  C
  H61      1.0000 0.19190  0.80550  0.99670  Biso   1.000  H
  H62      1.0000 0.18420  0.74950  0.90630  Biso   1.000  H
  C62      1.0000 0.15000  0.73250  0.08060  Biso   1.000  C
  H63      1.0000 0.13580  0.69300  0.04980  Biso   1.000  H
  H64      1.0000 0.19290  0.72770  0.13110  Biso   1.000  H
  C63      1.0000 0.02810  0.75910  0.09300  Biso   1.000  C
  H65      1.0000 0.00940  0.71880  0.08320  Biso   1.000  H
  H66      1.0000 0.99760  0.78260  0.14190  Biso   1.000  H
  C64      1.0000 0.09780  0.75610  0.16170  Biso   1.000  C
  H67      1.0000 0.11110  0.79610  0.19090  Biso   1.000  H
  H68      1.0000 0.09560  0.73030  0.23510  Biso   1.000  H
  Fe2      1.0000 0.00000  0.84839  0.75000  Biso   1.000  Fe
  C65      1.0000 0.69410  0.65524  0.03990  Biso   1.000  C
  C66      1.0000 0.69270  0.63995  0.91450  Biso   1.000  C
  H69      1.0000 0.65210  0.62520  0.87510  Biso   1.000  H
  C67      1.0000 0.74920  0.64572  0.84510  Biso   1.000  C
  C68      1.0000 0.80790  0.66910  0.90110  Biso   1.000  C
  H70      1.0000 0.84600  0.67440  0.85430  Biso   1.000  H
  B5       1.0000 0.62780  0.65230  0.11420  Biso   1.000  B
  C69      1.0000 0.75510  0.67740  0.09370  Biso   1.000  C
  H71      1.0000 0.75820  0.68750  0.17890  Biso   1.000  H
  C70      1.0000 0.81100  0.68480  0.02530  Biso   1.000  C
  H72      1.0000 0.85140  0.70050  0.06360  Biso   1.000  H
  O21      1.0000 0.59511  0.59202  0.09920  Biso   1.000  O
  N13      1.0000 0.54135  0.58619  0.17260  Biso   1.000  N
  C71      1.0000 0.52530  0.53260  0.20530  Biso   1.000  C
  C72      1.0000 0.55490  0.47680  0.15780  Biso   1.000  C
  H73      1.0000 0.55930  0.48040  0.06760  Biso   1.000  H
  H74      1.0000 0.60040  0.47080  0.19840  Biso   1.000  H
  O22      1.0000 0.79727  0.63770  0.65200  Biso   1.000  O
  H75      1.0000 0.79340  0.62160  0.58200  Biso   1.000  H
  O23      1.0000 0.69500  0.59891  0.66770  Biso   1.000  O
  C73      1.0000 0.74430  0.62540  0.71270  Biso   1.000  C
  C74      1.0000 0.51040  0.42330  0.18360  Biso   1.000  C
  H76      1.0000 0.53530  0.38650  0.16820  Biso   1.000  H
  H77      1.0000 0.46970  0.42410  0.12600  Biso   1.000  H
  O24      1.0000 0.64503  0.66442  0.24740  Biso   1.000  O
  N14      1.0000 0.58878  0.67230  0.31260  Biso   1.000  N
  C75      1.0000 0.59660  0.70327  0.41400  Biso   1.000  C
  C76      1.0000 0.53280  0.71326  0.46880  Biso   1.000  C
  N15      1.0000 0.48226  0.69481  0.39550  Biso   1.000  N
  O25      1.0000 0.41950  0.69856  0.44160  Biso   1.000  O
  C77      1.0000 0.66180  0.72750  0.46950  Biso   1.000  C
  H78      1.0000 0.69190  0.69450  0.49670  Biso   1.000  H
  H79      1.0000 0.68420  0.75050  0.40630  Biso   1.000  H
  C78      1.0000 0.65000  0.76750  0.58060  Biso   1.000  C
  H80      1.0000 0.63580  0.80700  0.54980  Biso   1.000  H
  H81      1.0000 0.69290  0.77230  0.63110  Biso   1.000  H
  C79      1.0000 0.52810  0.74090  0.59300  Biso   1.000  C
  H82      1.0000 0.50940  0.78120  0.58320  Biso   1.000  H
  H83      1.0000 0.49760  0.71740  0.64190  Biso   1.000  H
  C80      1.0000 0.59780  0.74390  0.66170  Biso   1.000  C
  H84      1.0000 0.61110  0.70390  0.69090  Biso   1.000  H
  H85      1.0000 0.59560  0.76970  0.73510  Biso   1.000  H
  C81      1.0000 0.30590  0.65524  0.46010  Biso   1.000  C
  C82      1.0000 0.30730  0.63995  0.58550  Biso   1.000  C
  H86      1.0000 0.34790  0.62520  0.62490  Biso   1.000  H
  C83      1.0000 0.25080  0.64572  0.65490  Biso   1.000  C
  C84      1.0000 0.19210  0.66910  0.59890  Biso   1.000  C
  H87      1.0000 0.15400  0.67440  0.64570  Biso   1.000  H
  B6       1.0000 0.37220  0.65230  0.38580  Biso   1.000  B
  C85      1.0000 0.24490  0.67740  0.40630  Biso   1.000  C
  H88      1.0000 0.24180  0.68750  0.32110  Biso   1.000  H
  C86      1.0000 0.18900  0.68480  0.47470  Biso   1.000  C
  H89      1.0000 0.14860  0.70050  0.43640  Biso   1.000  H
  O26      1.0000 0.40489  0.59202  0.40080  Biso   1.000  O
  N16      1.0000 0.45865  0.58619  0.32740  Biso   1.000  N
  C87      1.0000 0.47470  0.53260  0.29470  Biso   1.000  C
  C88      1.0000 0.44510  0.47680  0.34220  Biso   1.000  C
  H90      1.0000 0.44070  0.48040  0.43240  Biso   1.000  H
  H91      1.0000 0.39960  0.47080  0.30160  Biso   1.000  H
  O27      1.0000 0.20273  0.63770  0.84800  Biso   1.000  O
  H92      1.0000 0.20660  0.62160  0.91800  Biso   1.000  H
  O28      1.0000 0.30500  0.59891  0.83230  Biso   1.000  O
  C89      1.0000 0.25570  0.62540  0.78730  Biso   1.000  C
  C90      1.0000 0.48960  0.42330  0.31640  Biso   1.000  C
  H93      1.0000 0.46470  0.38650  0.33180  Biso   1.000  H
  H94      1.0000 0.53030  0.42410  0.37400  Biso   1.000  H
  O29      1.0000 0.35497  0.66442  0.25260  Biso   1.000  O
  N17      1.0000 0.41122  0.67230  0.18740  Biso   1.000  N
  C91      1.0000 0.40340  0.70327  0.08600  Biso   1.000  C
  C92      1.0000 0.46720  0.71326  0.03120  Biso   1.000  C
  N18      1.0000 0.51774  0.69481  0.10450  Biso   1.000  N
  O30      1.0000 0.58050  0.69856  0.05840  Biso   1.000  O
  C93      1.0000 0.33820  0.72750  0.03050  Biso   1.000  C
  H95      1.0000 0.30810  0.69450  0.00330  Biso   1.000  H
  H96      1.0000 0.31580  0.75050  0.09370  Biso   1.000  H
  C94      1.0000 0.35000  0.76750  0.91940  Biso   1.000  C
  H97      1.0000 0.36420  0.80700  0.95020  Biso   1.000  H
  H98      1.0000 0.30710  0.77230  0.86890  Biso   1.000  H
  C95      1.0000 0.47190  0.74090  0.90700  Biso   1.000  C
  H99      1.0000 0.49060  0.78120  0.91680  Biso   1.000  H
  H100     1.0000 0.50240  0.71740  0.85810  Biso   1.000  H
  C96      1.0000 0.40220  0.74390  0.83830  Biso   1.000  C
  H101     1.0000 0.38890  0.70390  0.80910  Biso   1.000  H
  H102     1.0000 0.40440  0.76970  0.76490  Biso   1.000  H
  Fe3      1.0000 0.50000  0.65161  0.25000  Biso   1.000  Fe
  C97      1.0000 0.19410  0.15524  0.03990  Biso   1.000  C
  C98      1.0000 0.19270  0.13995  0.91450  Biso   1.000  C
  H103     1.0000 0.15210  0.12520  0.87510  Biso   1.000  H
  C99      1.0000 0.24920  0.14572  0.84510  Biso   1.000  C
  C100     1.0000 0.30790  0.16910  0.90110  Biso   1.000  C
  H104     1.0000 0.34600  0.17440  0.85430  Biso   1.000  H
  B7       1.0000 0.12780  0.15230  0.11420  Biso   1.000  B
  C101     1.0000 0.25510  0.17740  0.09370  Biso   1.000  C
  H105     1.0000 0.25820  0.18750  0.17890  Biso   1.000  H
  C102     1.0000 0.31100  0.18480  0.02530  Biso   1.000  C
  H106     1.0000 0.35140  0.20050  0.06360  Biso   1.000  H
  O31      1.0000 0.09511  0.09202  0.09920  Biso   1.000  O
  N19      1.0000 0.04135  0.08619  0.17260  Biso   1.000  N
  C103     1.0000 0.02530  0.03260  0.20530  Biso   1.000  C
  C104     1.0000 0.05490  0.97680  0.15780  Biso   1.000  C
  H107     1.0000 0.05930  0.98040  0.06760  Biso   1.000  H
  H108     1.0000 0.10040  0.97080  0.19840  Biso   1.000  H
  O32      1.0000 0.29727  0.13770  0.65200  Biso   1.000  O
  H109     1.0000 0.29340  0.12160  0.58200  Biso   1.000  H
  O33      1.0000 0.19500  0.09891  0.66770  Biso   1.000  O
  C105     1.0000 0.24430  0.12540  0.71270  Biso   1.000  C
  C106     1.0000 0.01040  0.92330  0.18360  Biso   1.000  C
  H110     1.0000 0.03530  0.88650  0.16820  Biso   1.000  H
  H111     1.0000 0.96970  0.92410  0.12600  Biso   1.000  H
  O34      1.0000 0.14503  0.16442  0.24740  Biso   1.000  O
  N20      1.0000 0.08878  0.17230  0.31260  Biso   1.000  N
  C107     1.0000 0.09660  0.20327  0.41400  Biso   1.000  C
  C108     1.0000 0.03280  0.21326  0.46880  Biso   1.000  C
  N21      1.0000 0.98226  0.19481  0.39550  Biso   1.000  N
  O35      1.0000 0.91950  0.19856  0.44160  Biso   1.000  O
  C109     1.0000 0.16180  0.22750  0.46950  Biso   1.000  C
  H112     1.0000 0.19190  0.19450  0.49670  Biso   1.000  H
  H113     1.0000 0.18420  0.25050  0.40630  Biso   1.000  H
  C110     1.0000 0.15000  0.26750  0.58060  Biso   1.000  C
  H114     1.0000 0.13580  0.30700  0.54980  Biso   1.000  H
  H115     1.0000 0.19290  0.27230  0.63110  Biso   1.000  H
  C111     1.0000 0.02810  0.24090  0.59300  Biso   1.000  C
  H116     1.0000 0.00940  0.28120  0.58320  Biso   1.000  H
  H117     1.0000 0.99760  0.21740  0.64190  Biso   1.000  H
  C112     1.0000 0.09780  0.24390  0.66170  Biso   1.000  C
  H118     1.0000 0.11110  0.20390  0.69090  Biso   1.000  H
  H119     1.0000 0.09560  0.26970  0.73510  Biso   1.000  H
  C113     1.0000 0.80590  0.15524  0.46010  Biso   1.000  C
  C114     1.0000 0.80730  0.13995  0.58550  Biso   1.000  C
  H120     1.0000 0.84790  0.12520  0.62490  Biso   1.000  H
  C115     1.0000 0.75080  0.14572  0.65490  Biso   1.000  C
  C116     1.0000 0.69210  0.16910  0.59890  Biso   1.000  C
  H121     1.0000 0.65400  0.17440  0.64570  Biso   1.000  H
  B8       1.0000 0.87220  0.15230  0.38580  Biso   1.000  B
  C117     1.0000 0.74490  0.17740  0.40630  Biso   1.000  C
  H122     1.0000 0.74180  0.18750  0.32110  Biso   1.000  H
  C118     1.0000 0.68900  0.18480  0.47470  Biso   1.000  C
  H123     1.0000 0.64860  0.20050  0.43640  Biso   1.000  H
  O36      1.0000 0.90489  0.09202  0.40080  Biso   1.000  O
  N22      1.0000 0.95865  0.08619  0.32740  Biso   1.000  N
  C119     1.0000 0.97470  0.03260  0.29470  Biso   1.000  C
  C120     1.0000 0.94510  0.97680  0.34220  Biso   1.000  C
  H124     1.0000 0.94070  0.98040  0.43240  Biso   1.000  H
  H125     1.0000 0.89960  0.97080  0.30160  Biso   1.000  H
  O37      1.0000 0.70273  0.13770  0.84800  Biso   1.000  O
  H126     1.0000 0.70660  0.12160  0.91800  Biso   1.000  H
  O38      1.0000 0.80500  0.09891  0.83230  Biso   1.000  O
  C121     1.0000 0.75570  0.12540  0.78730  Biso   1.000  C
  C122     1.0000 0.98960  0.92330  0.31640  Biso   1.000  C
  H127     1.0000 0.96470  0.88650  0.33180  Biso   1.000  H
  H128     1.0000 0.03030  0.92410  0.37400  Biso   1.000  H
  O39      1.0000 0.85497  0.16442  0.25260  Biso   1.000  O
  N23      1.0000 0.91122  0.17230  0.18740  Biso   1.000  N
  C123     1.0000 0.90340  0.20327  0.08600  Biso   1.000  C
  C124     1.0000 0.96720  0.21326  0.03120  Biso   1.000  C
  N24      1.0000 0.01774  0.19481  0.10450  Biso   1.000  N
  O40      1.0000 0.08050  0.19856  0.05840  Biso   1.000  O
  C125     1.0000 0.83820  0.22750  0.03050  Biso   1.000  C
  H129     1.0000 0.80810  0.19450  0.00330  Biso   1.000  H
  H130     1.0000 0.81580  0.25050  0.09370  Biso   1.000  H
  C126     1.0000 0.85000  0.26750  0.91940  Biso   1.000  C
  H131     1.0000 0.86420  0.30700  0.95020  Biso   1.000  H
  H132     1.0000 0.80710  0.27230  0.86890  Biso   1.000  H
  C127     1.0000 0.97190  0.24090  0.90700  Biso   1.000  C
  H133     1.0000 0.99060  0.28120  0.91680  Biso   1.000  H
  H134     1.0000 0.00240  0.21740  0.85810  Biso   1.000  H
  C128     1.0000 0.90220  0.24390  0.83830  Biso   1.000  C
  H135     1.0000 0.88890  0.20390  0.80910  Biso   1.000  H
  H136     1.0000 0.90440  0.26970  0.76490  Biso   1.000  H
  Fe4      1.0000 0.00000  0.15161  0.25000  Biso   1.000  Fe
