data_image0
_cell_length_a       27.981
_cell_length_b       11.2983
_cell_length_c       11.8755
_cell_angle_alpha    90
_cell_angle_beta     98.939
_cell_angle_gamma    90

_symmetry_space_group_name_H-M    "P 1"
_symmetry_int_tables_number       1

loop_
  _symmetry_equiv_pos_as_xyz
  'x, y, z'

loop_
  _atom_site_label
  _atom_site_occupancy
  _atom_site_fract_x
  _atom_site_fract_y
  _atom_site_fract_z
  _atom_site_thermal_displace_type
  _atom_site_B_iso_or_equiv
  _atom_site_type_symbol
  Eu1      1.0000 0.49505  0.36741  0.16823  Biso   1.000  Eu
  O1       1.0000 0.98209  0.11630  0.35680  Biso   1.000  O
  O2       1.0000 0.98355  0.45020  0.35820  Biso   1.000  O
  O3       1.0000 0.55973  0.50740  0.17220  Biso   1.000  O
  O4       1.0000 0.45084  0.38800  0.98780  Biso   1.000  O
  O5       1.0000 0.54988  0.28860  0.03500  Biso   1.000  O
  O6       1.0000 0.56948  0.24210  0.21500  Biso   1.000  O
  O7       1.0000 0.78140  0.45230  0.94190  Biso   1.000  O
  O8       1.0000 0.77949  0.12020  0.93910  Biso   1.000  O
  O9       1.0000 0.94358  0.55290  0.47570  Biso   1.000  O
  C1       1.0000 0.70874  0.13480  0.16480  Biso   1.000  C
  H1       1.0000 0.73050  0.09790  0.22370  Biso   1.000  H
  C2       1.0000 0.62934  0.21180  0.09430  Biso   1.000  C
  C3       1.0000 0.72425  0.16670  0.06270  Biso   1.000  C
  C4       1.0000 0.81750  0.54300  0.23540  Biso   1.000  C
  H2       1.0000 0.78800  0.57550  0.25170  Biso   1.000  H
  C5       1.0000 0.90276  0.11680  0.18470  Biso   1.000  C
  H3       1.0000 0.93240  0.08550  0.16840  Biso   1.000  H
  C6       1.0000 0.77413  0.14460  0.03660  Biso   1.000  C
  C7       1.0000 0.69442  0.55730  0.97430  Biso   1.000  C
  H4       1.0000 0.70600  0.58000  0.90650  Biso   1.000  H
  C8       1.0000 0.81891  0.48880  0.13030  Biso   1.000  C
  C9       1.0000 0.90187  0.50210  0.29250  Biso   1.000  C
  C10      1.0000 0.72580  0.50370  0.06200  Biso   1.000  C
  C11      1.0000 0.77591  0.48000  0.03830  Biso   1.000  C
  C12      1.0000 0.62841  0.54150  0.08220  Biso   1.000  C
  C13      1.0000 0.94560  0.50370  0.38280  Biso   1.000  C
  C14      1.0000 0.70819  0.47050  0.16110  Biso   1.000  C
  H5       1.0000 0.72950  0.43590  0.22250  Biso   1.000  H
  C15      1.0000 0.86302  0.44350  0.10650  Biso   1.000  C
  H6       1.0000 0.86450  0.40830  0.03450  Biso   1.000  H
  C16      1.0000 0.57582  0.55570  0.09020  Biso   1.000  C
  C17      1.0000 0.64627  0.57800  0.98460  Biso   1.000  C
  H7       1.0000 0.62560  0.61710  0.92510  Biso   1.000  H
  C18      1.0000 0.69156  0.21660  0.97530  Biso   1.000  C
  H8       1.0000 0.70170  0.23480  0.90460  Biso   1.000  H
  C19      1.0000 0.90071  0.16870  0.29010  Biso   1.000  C
  C20      1.0000 0.86190  0.11080  0.10440  Biso   1.000  C
  H9       1.0000 0.86350  0.07580  0.03230  Biso   1.000  H
  O10      1.0000 0.94220  0.22080  0.47290  Biso   1.000  O
  C21      1.0000 0.85722  0.21720  0.31280  Biso   1.000  C
  H10      1.0000 0.85610  0.25460  0.38400  Biso   1.000  H
  C22      1.0000 0.81606  0.21110  0.23260  Biso   1.000  C
  H11      1.0000 0.78660  0.24440  0.24840  Biso   1.000  H
  C23      1.0000 0.81776  0.15590  0.12790  Biso   1.000  C
  C24      1.0000 0.94390  0.17130  0.38030  Biso   1.000  C
  C25      1.0000 0.66151  0.15730  0.17980  Biso   1.000  C
  H12      1.0000 0.65100  0.13530  0.24910  Biso   1.000  H
  C26      1.0000 0.58038  0.24770  0.11540  Biso   1.000  C
  C27      1.0000 0.90420  0.44950  0.18670  Biso   1.000  C
  H13      1.0000 0.93390  0.41830  0.17030  Biso   1.000  H
  C28      1.0000 0.85884  0.54940  0.31570  Biso   1.000  C
  H14      1.0000 0.85770  0.58630  0.38710  Biso   1.000  H
  C29      1.0000 0.65987  0.48750  0.17070  Biso   1.000  C
  H15      1.0000 0.64810  0.46250  0.23770  Biso   1.000  H
  C30      1.0000 0.64433  0.23980  0.99030  Biso   1.000  C
  H16      1.0000 0.62230  0.27450  0.93050  Biso   1.000  H
  Eu2      1.0000 0.50495  0.63259  0.83177  Biso   1.000  Eu
  O11      1.0000 0.01791  0.88370  0.64320  Biso   1.000  O
  O12      1.0000 0.01645  0.54980  0.64180  Biso   1.000  O
  O13      1.0000 0.44027  0.49260  0.82780  Biso   1.000  O
  O14      1.0000 0.54916  0.61200  0.01220  Biso   1.000  O
  O15      1.0000 0.45012  0.71140  0.96500  Biso   1.000  O
  O16      1.0000 0.43052  0.75790  0.78500  Biso   1.000  O
  O17      1.0000 0.21860  0.54770  0.05810  Biso   1.000  O
  O18      1.0000 0.22051  0.87980  0.06090  Biso   1.000  O
  O19      1.0000 0.05642  0.44710  0.52430  Biso   1.000  O
  C31      1.0000 0.29126  0.86520  0.83520  Biso   1.000  C
  H17      1.0000 0.26950  0.90210  0.77630  Biso   1.000  H
  C32      1.0000 0.37066  0.78820  0.90570  Biso   1.000  C
  C33      1.0000 0.27575  0.83330  0.93730  Biso   1.000  C
  C34      1.0000 0.18250  0.45700  0.76460  Biso   1.000  C
  H18      1.0000 0.21200  0.42450  0.74830  Biso   1.000  H
  C35      1.0000 0.09724  0.88320  0.81530  Biso   1.000  C
  H19      1.0000 0.06760  0.91450  0.83160  Biso   1.000  H
  C36      1.0000 0.22587  0.85540  0.96340  Biso   1.000  C
  C37      1.0000 0.30558  0.44270  0.02570  Biso   1.000  C
  H20      1.0000 0.29400  0.42000  0.09350  Biso   1.000  H
  C38      1.0000 0.18109  0.51120  0.86970  Biso   1.000  C
  C39      1.0000 0.09813  0.49790  0.70750  Biso   1.000  C
  C40      1.0000 0.27420  0.49630  0.93800  Biso   1.000  C
  C41      1.0000 0.22409  0.52000  0.96170  Biso   1.000  C
  C42      1.0000 0.37159  0.45850  0.91780  Biso   1.000  C
  C43      1.0000 0.05440  0.49630  0.61720  Biso   1.000  C
  C44      1.0000 0.29181  0.52950  0.83890  Biso   1.000  C
  H21      1.0000 0.27050  0.56410  0.77750  Biso   1.000  H
  C45      1.0000 0.13698  0.55650  0.89350  Biso   1.000  C
  H22      1.0000 0.13550  0.59170  0.96550  Biso   1.000  H
  C46      1.0000 0.42418  0.44430  0.90980  Biso   1.000  C
  C47      1.0000 0.35373  0.42200  0.01540  Biso   1.000  C
  H23      1.0000 0.37440  0.38290  0.07490  Biso   1.000  H
  C48      1.0000 0.30844  0.78340  0.02470  Biso   1.000  C
  H24      1.0000 0.29830  0.76520  0.09540  Biso   1.000  H
  C49      1.0000 0.09929  0.83130  0.70990  Biso   1.000  C
  C50      1.0000 0.13810  0.88920  0.89560  Biso   1.000  C
  H25      1.0000 0.13650  0.92420  0.96770  Biso   1.000  H
  O20      1.0000 0.05780  0.77920  0.52710  Biso   1.000  O
  C51      1.0000 0.14278  0.78280  0.68720  Biso   1.000  C
  H26      1.0000 0.14390  0.74540  0.61600  Biso   1.000  H
  C52      1.0000 0.18394  0.78890  0.76740  Biso   1.000  C
  H27      1.0000 0.21340  0.75560  0.75160  Biso   1.000  H
  C53      1.0000 0.18224  0.84410  0.87210  Biso   1.000  C
  C54      1.0000 0.05610  0.82870  0.61970  Biso   1.000  C
  C55      1.0000 0.33849  0.84270  0.82020  Biso   1.000  C
  H28      1.0000 0.34900  0.86470  0.75090  Biso   1.000  H
  C56      1.0000 0.41962  0.75230  0.88460  Biso   1.000  C
  C57      1.0000 0.09580  0.55050  0.81330  Biso   1.000  C
  H29      1.0000 0.06610  0.58170  0.82970  Biso   1.000  H
  C58      1.0000 0.14116  0.45060  0.68430  Biso   1.000  C
  H30      1.0000 0.14230  0.41370  0.61290  Biso   1.000  H
  C59      1.0000 0.34013  0.51250  0.82930  Biso   1.000  C
  H31      1.0000 0.35190  0.53750  0.76230  Biso   1.000  H
  C60      1.0000 0.35567  0.76020  0.00970  Biso   1.000  C
  H32      1.0000 0.37770  0.72550  0.06950  Biso   1.000  H
  Eu3      1.0000 0.50495  0.86741  0.33177  Biso   1.000  Eu
  O21      1.0000 0.01791  0.61630  0.14320  Biso   1.000  O
  O22      1.0000 0.01645  0.95020  0.14180  Biso   1.000  O
  O23      1.0000 0.44027  0.00740  0.32780  Biso   1.000  O
  O24      1.0000 0.54916  0.88800  0.51220  Biso   1.000  O
  O25      1.0000 0.45012  0.78860  0.46500  Biso   1.000  O
  O26      1.0000 0.43052  0.74210  0.28500  Biso   1.000  O
  O27      1.0000 0.21860  0.95230  0.55810  Biso   1.000  O
  O28      1.0000 0.22051  0.62020  0.56090  Biso   1.000  O
  O29      1.0000 0.05642  0.05290  0.02430  Biso   1.000  O
  C61      1.0000 0.29126  0.63480  0.33520  Biso   1.000  C
  H33      1.0000 0.26950  0.59790  0.27630  Biso   1.000  H
  C62      1.0000 0.37066  0.71180  0.40570  Biso   1.000  C
  C63      1.0000 0.27575  0.66670  0.43730  Biso   1.000  C
  C64      1.0000 0.18250  0.04300  0.26460  Biso   1.000  C
  H34      1.0000 0.21200  0.07550  0.24830  Biso   1.000  H
  C65      1.0000 0.09724  0.61680  0.31530  Biso   1.000  C
  H35      1.0000 0.06760  0.58550  0.33160  Biso   1.000  H
  C66      1.0000 0.22587  0.64460  0.46340  Biso   1.000  C
  C67      1.0000 0.30558  0.05730  0.52570  Biso   1.000  C
  H36      1.0000 0.29400  0.08000  0.59350  Biso   1.000  H
  C68      1.0000 0.18109  0.98880  0.36970  Biso   1.000  C
  C69      1.0000 0.09813  0.00210  0.20750  Biso   1.000  C
  C70      1.0000 0.27420  0.00370  0.43800  Biso   1.000  C
  C71      1.0000 0.22409  0.98000  0.46170  Biso   1.000  C
  C72      1.0000 0.37159  0.04150  0.41780  Biso   1.000  C
  C73      1.0000 0.05440  0.00370  0.11720  Biso   1.000  C
  C74      1.0000 0.29181  0.97050  0.33890  Biso   1.000  C
  H37      1.0000 0.27050  0.93590  0.27750  Biso   1.000  H
  C75      1.0000 0.13698  0.94350  0.39350  Biso   1.000  C
  H38      1.0000 0.13550  0.90830  0.46550  Biso   1.000  H
  C76      1.0000 0.42418  0.05570  0.40980  Biso   1.000  C
  C77      1.0000 0.35373  0.07800  0.51540  Biso   1.000  C
  H39      1.0000 0.37440  0.11710  0.57490  Biso   1.000  H
  C78      1.0000 0.30844  0.71660  0.52470  Biso   1.000  C
  H40      1.0000 0.29830  0.73480  0.59540  Biso   1.000  H
  C79      1.0000 0.09929  0.66870  0.20990  Biso   1.000  C
  C80      1.0000 0.13810  0.61080  0.39560  Biso   1.000  C
  H41      1.0000 0.13650  0.57580  0.46770  Biso   1.000  H
  O30      1.0000 0.05780  0.72080  0.02710  Biso   1.000  O
  C81      1.0000 0.14278  0.71720  0.18720  Biso   1.000  C
  H42      1.0000 0.14390  0.75460  0.11600  Biso   1.000  H
  C82      1.0000 0.18394  0.71110  0.26740  Biso   1.000  C
  H43      1.0000 0.21340  0.74440  0.25160  Biso   1.000  H
  C83      1.0000 0.18224  0.65590  0.37210  Biso   1.000  C
  C84      1.0000 0.05610  0.67130  0.11970  Biso   1.000  C
  C85      1.0000 0.33849  0.65730  0.32020  Biso   1.000  C
  H44      1.0000 0.34900  0.63530  0.25090  Biso   1.000  H
  C86      1.0000 0.41962  0.74770  0.38460  Biso   1.000  C
  C87      1.0000 0.09580  0.94950  0.31330  Biso   1.000  C
  H45      1.0000 0.06610  0.91830  0.32970  Biso   1.000  H
  C88      1.0000 0.14116  0.04940  0.18430  Biso   1.000  C
  H46      1.0000 0.14230  0.08630  0.11290  Biso   1.000  H
  C89      1.0000 0.34013  0.98750  0.32930  Biso   1.000  C
  H47      1.0000 0.35190  0.96250  0.26230  Biso   1.000  H
  C90      1.0000 0.35567  0.73980  0.50970  Biso   1.000  C
  H48      1.0000 0.37770  0.77450  0.56950  Biso   1.000  H
  Eu4      1.0000 0.49505  0.13259  0.66823  Biso   1.000  Eu
  O31      1.0000 0.98209  0.38370  0.85680  Biso   1.000  O
  O32      1.0000 0.98355  0.04980  0.85820  Biso   1.000  O
  O33      1.0000 0.55973  0.99260  0.67220  Biso   1.000  O
  O34      1.0000 0.45084  0.11200  0.48780  Biso   1.000  O
  O35      1.0000 0.54988  0.21140  0.53500  Biso   1.000  O
  O36      1.0000 0.56948  0.25790  0.71500  Biso   1.000  O
  O37      1.0000 0.78140  0.04770  0.44190  Biso   1.000  O
  O38      1.0000 0.77949  0.37980  0.43910  Biso   1.000  O
  O39      1.0000 0.94358  0.94710  0.97570  Biso   1.000  O
  C91      1.0000 0.70874  0.36520  0.66480  Biso   1.000  C
  H49      1.0000 0.73050  0.40210  0.72370  Biso   1.000  H
  C92      1.0000 0.62934  0.28820  0.59430  Biso   1.000  C
  C93      1.0000 0.72425  0.33330  0.56270  Biso   1.000  C
  C94      1.0000 0.81750  0.95700  0.73540  Biso   1.000  C
  H50      1.0000 0.78800  0.92450  0.75170  Biso   1.000  H
  C95      1.0000 0.90276  0.38320  0.68470  Biso   1.000  C
  H51      1.0000 0.93240  0.41450  0.66840  Biso   1.000  H
  C96      1.0000 0.77413  0.35540  0.53660  Biso   1.000  C
  C97      1.0000 0.69442  0.94270  0.47430  Biso   1.000  C
  H52      1.0000 0.70600  0.92000  0.40650  Biso   1.000  H
  C98      1.0000 0.81891  0.01120  0.63030  Biso   1.000  C
  C99      1.0000 0.90187  0.99790  0.79250  Biso   1.000  C
  C100     1.0000 0.72580  0.99630  0.56200  Biso   1.000  C
  C101     1.0000 0.77591  0.02000  0.53830  Biso   1.000  C
  C102     1.0000 0.62841  0.95850  0.58220  Biso   1.000  C
  C103     1.0000 0.94560  0.99630  0.88280  Biso   1.000  C
  C104     1.0000 0.70819  0.02950  0.66110  Biso   1.000  C
  H53      1.0000 0.72950  0.06410  0.72250  Biso   1.000  H
  C105     1.0000 0.86302  0.05650  0.60650  Biso   1.000  C
  H54      1.0000 0.86450  0.09170  0.53450  Biso   1.000  H
  C106     1.0000 0.57582  0.94430  0.59020  Biso   1.000  C
  C107     1.0000 0.64627  0.92200  0.48460  Biso   1.000  C
  H55      1.0000 0.62560  0.88290  0.42510  Biso   1.000  H
  C108     1.0000 0.69156  0.28340  0.47530  Biso   1.000  C
  H56      1.0000 0.70170  0.26520  0.40460  Biso   1.000  H
  C109     1.0000 0.90071  0.33130  0.79010  Biso   1.000  C
  C110     1.0000 0.86190  0.38920  0.60440  Biso   1.000  C
  H57      1.0000 0.86350  0.42420  0.53230  Biso   1.000  H
  O40      1.0000 0.94220  0.27920  0.97290  Biso   1.000  O
  C111     1.0000 0.85722  0.28280  0.81280  Biso   1.000  C
  H58      1.0000 0.85610  0.24540  0.88400  Biso   1.000  H
  C112     1.0000 0.81606  0.28890  0.73260  Biso   1.000  C
  H59      1.0000 0.78660  0.25560  0.74840  Biso   1.000  H
  C113     1.0000 0.81776  0.34410  0.62790  Biso   1.000  C
  C114     1.0000 0.94390  0.32870  0.88030  Biso   1.000  C
  C115     1.0000 0.66151  0.34270  0.67980  Biso   1.000  C
  H60      1.0000 0.65100  0.36470  0.74910  Biso   1.000  H
  C116     1.0000 0.58038  0.25230  0.61540  Biso   1.000  C
  C117     1.0000 0.90420  0.05050  0.68670  Biso   1.000  C
  H61      1.0000 0.93390  0.08170  0.67030  Biso   1.000  H
  C118     1.0000 0.85884  0.95060  0.81570  Biso   1.000  C
  H62      1.0000 0.85770  0.91370  0.88710  Biso   1.000  H
  C119     1.0000 0.65987  0.01250  0.67070  Biso   1.000  C
  H63      1.0000 0.64810  0.03750  0.73770  Biso   1.000  H
  C120     1.0000 0.64433  0.26020  0.49030  Biso   1.000  C
  H64      1.0000 0.62230  0.22550  0.43050  Biso   1.000  H
