data_image0
_cell_length_a       22.203
_cell_length_b       13.674
_cell_length_c       27.303
_cell_angle_alpha    90
_cell_angle_beta     94.76
_cell_angle_gamma    90

_symmetry_space_group_name_H-M    "P 1"
_symmetry_int_tables_number       1

loop_
  _symmetry_equiv_pos_as_xyz
  'x, y, z'

loop_
  _atom_site_label
  _atom_site_occupancy
  _atom_site_fract_x
  _atom_site_fract_y
  _atom_site_fract_z
  _atom_site_thermal_displace_type
  _atom_site_B_iso_or_equiv
  _atom_site_type_symbol
  Ru1      1.0000 0.16157  0.59796  0.63847  Biso   1.000  Ru
  Br1      1.0000 0.93124  0.47280  0.70141  Biso   1.000  Br
  N1       1.0000 0.09290  0.49810  0.64227  Biso   1.000  N
  N2       1.0000 0.19800  0.47600  0.60810  Biso   1.000  N
  N3       1.0000 0.13260  0.64920  0.56970  Biso   1.000  N
  N4       1.0000 0.22850  0.69950  0.62830  Biso   1.000  N
  N5       1.0000 0.19470  0.56800  0.70940  Biso   1.000  N
  N6       1.0000 0.12080  0.70870  0.67460  Biso   1.000  N
  C1       1.0000 0.04200  0.51460  0.66350  Biso   1.000  C
  H1       1.0000 0.03570  0.57680  0.67780  Biso   1.000  H
  C2       1.0000 0.99810  0.44330  0.66530  Biso   1.000  C
  C3       1.0000 0.00500  0.35530  0.64270  Biso   1.000  C
  H2       1.0000 0.97420  0.30700  0.64260  Biso   1.000  H
  C4       1.0000 0.05710  0.33700  0.61990  Biso   1.000  C
  H3       1.0000 0.06270  0.27670  0.60360  Biso   1.000  H
  C5       1.0000 0.10160  0.40990  0.62150  Biso   1.000  C
  C6       1.0000 0.16090  0.39630  0.60200  Biso   1.000  C
  C7       1.0000 0.17930  0.31070  0.58130  Biso   1.000  C
  H4       1.0000 0.15250  0.25660  0.57710  Biso   1.000  H
  C8       1.0000 0.23780  0.30460  0.56670  Biso   1.000  C
  H5       1.0000 0.25140  0.24600  0.55240  Biso   1.000  H
  C9       1.0000 0.27600  0.38440  0.57300  Biso   1.000  C
  H6       1.0000 0.31610  0.38120  0.56340  Biso   1.000  H
  C10      1.0000 0.25480  0.46880  0.59370  Biso   1.000  C
  H7       1.0000 0.28100  0.52360  0.59790  Biso   1.000  H
  C11      1.0000 0.08540  0.62170  0.53950  Biso   1.000  C
  H8       1.0000 0.06160  0.56820  0.54900  Biso   1.000  H
  C12      1.0000 0.06900  0.66780  0.49460  Biso   1.000  C
  H9       1.0000 0.03520  0.64520  0.47410  Biso   1.000  H
  C13      1.0000 0.10230  0.74580  0.48030  Biso   1.000  C
  H10      1.0000 0.09140  0.77870  0.45020  Biso   1.000  H
  C14      1.0000 0.15190  0.77570  0.51040  Biso   1.000  C
  C15      1.0000 0.16640  0.72670  0.55450  Biso   1.000  C
  C16      1.0000 0.19030  0.85580  0.49820  Biso   1.000  C
  H11      1.0000 0.18140  0.89040  0.46830  Biso   1.000  H
  C17      1.0000 0.23950  0.88290  0.52920  Biso   1.000  C
  H12      1.0000 0.26400  0.93590  0.52040  Biso   1.000  H
  C18      1.0000 0.25390  0.83310  0.57390  Biso   1.000  C
  C19      1.0000 0.21740  0.75340  0.58620  Biso   1.000  C
  C20      1.0000 0.27550  0.72470  0.65850  Biso   1.000  C
  H13      1.0000 0.28380  0.68780  0.68780  Biso   1.000  H
  C21      1.0000 0.31380  0.80320  0.64960  Biso   1.000  C
  H14      1.0000 0.34680  0.81880  0.67270  Biso   1.000  H
  C22      1.0000 0.30370  0.85670  0.60800  Biso   1.000  C
  H15      1.0000 0.32960  0.90970  0.60170  Biso   1.000  H
  C23      1.0000 0.23130  0.49620  0.72670  Biso   1.000  C
  H16      1.0000 0.24330  0.44850  0.70410  Biso   1.000  H
  C24      1.0000 0.25310  0.48730  0.77610  Biso   1.000  C
  H17      1.0000 0.27930  0.43530  0.78670  Biso   1.000  H
  C25      1.0000 0.23500  0.55770  0.80960  Biso   1.000  C
  H18      1.0000 0.24880  0.55340  0.84350  Biso   1.000  H
  C26      1.0000 0.19710  0.63350  0.79290  Biso   1.000  C
  C27      1.0000 0.17670  0.63690  0.74280  Biso   1.000  C
  C28      1.0000 0.13720  0.71210  0.72410  Biso   1.000  C
  C29      1.0000 0.11630  0.78410  0.75460  Biso   1.000  C
  C30      1.0000 0.13920  0.77870  0.80570  Biso   1.000  C
  H19      1.0000 0.12740  0.82790  0.82760  Biso   1.000  H
  C31      1.0000 0.17570  0.70870  0.82350  Biso   1.000  C
  H20      1.0000 0.18810  0.70830  0.85770  Biso   1.000  H
  C32      1.0000 0.08200  0.77630  0.65570  Biso   1.000  C
  H21      1.0000 0.06860  0.77280  0.62180  Biso   1.000  H
  C33      1.0000 0.06040  0.85180  0.68390  Biso   1.000  C
  H22      1.0000 0.03400  0.89980  0.66900  Biso   1.000  H
  C34      1.0000 0.07730  0.85620  0.73220  Biso   1.000  C
  H23      1.0000 0.06300  0.90780  0.75150  Biso   1.000  H
  Ru2      1.0000 0.66157  0.09796  0.63847  Biso   1.000  Ru
  Br2      1.0000 0.43124  0.97280  0.70141  Biso   1.000  Br
  N7       1.0000 0.59290  0.99810  0.64227  Biso   1.000  N
  N8       1.0000 0.69800  0.97600  0.60810  Biso   1.000  N
  N9       1.0000 0.63260  0.14920  0.56970  Biso   1.000  N
  N10      1.0000 0.72850  0.19950  0.62830  Biso   1.000  N
  N11      1.0000 0.69470  0.06800  0.70940  Biso   1.000  N
  N12      1.0000 0.62080  0.20870  0.67460  Biso   1.000  N
  C35      1.0000 0.54200  0.01460  0.66350  Biso   1.000  C
  H24      1.0000 0.53570  0.07680  0.67780  Biso   1.000  H
  C36      1.0000 0.49810  0.94330  0.66530  Biso   1.000  C
  C37      1.0000 0.50500  0.85530  0.64270  Biso   1.000  C
  H25      1.0000 0.47420  0.80700  0.64260  Biso   1.000  H
  C38      1.0000 0.55710  0.83700  0.61990  Biso   1.000  C
  H26      1.0000 0.56270  0.77670  0.60360  Biso   1.000  H
  C39      1.0000 0.60160  0.90990  0.62150  Biso   1.000  C
  C40      1.0000 0.66090  0.89630  0.60200  Biso   1.000  C
  C41      1.0000 0.67930  0.81070  0.58130  Biso   1.000  C
  H27      1.0000 0.65250  0.75660  0.57710  Biso   1.000  H
  C42      1.0000 0.73780  0.80460  0.56670  Biso   1.000  C
  H28      1.0000 0.75140  0.74600  0.55240  Biso   1.000  H
  C43      1.0000 0.77600  0.88440  0.57300  Biso   1.000  C
  H29      1.0000 0.81610  0.88120  0.56340  Biso   1.000  H
  C44      1.0000 0.75480  0.96880  0.59370  Biso   1.000  C
  H30      1.0000 0.78100  0.02360  0.59790  Biso   1.000  H
  C45      1.0000 0.58540  0.12170  0.53950  Biso   1.000  C
  H31      1.0000 0.56160  0.06820  0.54900  Biso   1.000  H
  C46      1.0000 0.56900  0.16780  0.49460  Biso   1.000  C
  H32      1.0000 0.53520  0.14520  0.47410  Biso   1.000  H
  C47      1.0000 0.60230  0.24580  0.48030  Biso   1.000  C
  H33      1.0000 0.59140  0.27870  0.45020  Biso   1.000  H
  C48      1.0000 0.65190  0.27570  0.51040  Biso   1.000  C
  C49      1.0000 0.66640  0.22670  0.55450  Biso   1.000  C
  C50      1.0000 0.69030  0.35580  0.49820  Biso   1.000  C
  H34      1.0000 0.68140  0.39040  0.46830  Biso   1.000  H
  C51      1.0000 0.73950  0.38290  0.52920  Biso   1.000  C
  H35      1.0000 0.76400  0.43590  0.52040  Biso   1.000  H
  C52      1.0000 0.75390  0.33310  0.57390  Biso   1.000  C
  C53      1.0000 0.71740  0.25340  0.58620  Biso   1.000  C
  C54      1.0000 0.77550  0.22470  0.65850  Biso   1.000  C
  H36      1.0000 0.78380  0.18780  0.68780  Biso   1.000  H
  C55      1.0000 0.81380  0.30320  0.64960  Biso   1.000  C
  H37      1.0000 0.84680  0.31880  0.67270  Biso   1.000  H
  C56      1.0000 0.80370  0.35670  0.60800  Biso   1.000  C
  H38      1.0000 0.82960  0.40970  0.60170  Biso   1.000  H
  C57      1.0000 0.73130  0.99620  0.72670  Biso   1.000  C
  H39      1.0000 0.74330  0.94850  0.70410  Biso   1.000  H
  C58      1.0000 0.75310  0.98730  0.77610  Biso   1.000  C
  H40      1.0000 0.77930  0.93530  0.78670  Biso   1.000  H
  C59      1.0000 0.73500  0.05770  0.80960  Biso   1.000  C
  H41      1.0000 0.74880  0.05340  0.84350  Biso   1.000  H
  C60      1.0000 0.69710  0.13350  0.79290  Biso   1.000  C
  C61      1.0000 0.67670  0.13690  0.74280  Biso   1.000  C
  C62      1.0000 0.63720  0.21210  0.72410  Biso   1.000  C
  C63      1.0000 0.61630  0.28410  0.75460  Biso   1.000  C
  C64      1.0000 0.63920  0.27870  0.80570  Biso   1.000  C
  H42      1.0000 0.62740  0.32790  0.82760  Biso   1.000  H
  C65      1.0000 0.67570  0.20870  0.82350  Biso   1.000  C
  H43      1.0000 0.68810  0.20830  0.85770  Biso   1.000  H
  C66      1.0000 0.58200  0.27630  0.65570  Biso   1.000  C
  H44      1.0000 0.56860  0.27280  0.62180  Biso   1.000  H
  C67      1.0000 0.56040  0.35180  0.68390  Biso   1.000  C
  H45      1.0000 0.53400  0.39980  0.66900  Biso   1.000  H
  C68      1.0000 0.57730  0.35620  0.73220  Biso   1.000  C
  H46      1.0000 0.56300  0.40780  0.75150  Biso   1.000  H
  Ru3      1.0000 0.83843  0.59796  0.86153  Biso   1.000  Ru
  Br3      1.0000 0.06876  0.47280  0.79859  Biso   1.000  Br
  N13      1.0000 0.90710  0.49810  0.85773  Biso   1.000  N
  N14      1.0000 0.80200  0.47600  0.89190  Biso   1.000  N
  N15      1.0000 0.86740  0.64920  0.93030  Biso   1.000  N
  N16      1.0000 0.77150  0.69950  0.87170  Biso   1.000  N
  N17      1.0000 0.80530  0.56800  0.79060  Biso   1.000  N
  N18      1.0000 0.87920  0.70870  0.82540  Biso   1.000  N
  C69      1.0000 0.95800  0.51460  0.83650  Biso   1.000  C
  H47      1.0000 0.96430  0.57680  0.82220  Biso   1.000  H
  C70      1.0000 0.00190  0.44330  0.83470  Biso   1.000  C
  C71      1.0000 0.99500  0.35530  0.85730  Biso   1.000  C
  H48      1.0000 0.02580  0.30700  0.85740  Biso   1.000  H
  C72      1.0000 0.94290  0.33700  0.88010  Biso   1.000  C
  H49      1.0000 0.93730  0.27670  0.89640  Biso   1.000  H
  C73      1.0000 0.89840  0.40990  0.87850  Biso   1.000  C
  C74      1.0000 0.83910  0.39630  0.89800  Biso   1.000  C
  C75      1.0000 0.82070  0.31070  0.91870  Biso   1.000  C
  H50      1.0000 0.84750  0.25660  0.92290  Biso   1.000  H
  C76      1.0000 0.76220  0.30460  0.93330  Biso   1.000  C
  H51      1.0000 0.74860  0.24600  0.94760  Biso   1.000  H
  C77      1.0000 0.72400  0.38440  0.92700  Biso   1.000  C
  H52      1.0000 0.68390  0.38120  0.93660  Biso   1.000  H
  C78      1.0000 0.74520  0.46880  0.90630  Biso   1.000  C
  H53      1.0000 0.71900  0.52360  0.90210  Biso   1.000  H
  C79      1.0000 0.91460  0.62170  0.96050  Biso   1.000  C
  H54      1.0000 0.93840  0.56820  0.95100  Biso   1.000  H
  C80      1.0000 0.93100  0.66780  0.00540  Biso   1.000  C
  H55      1.0000 0.96480  0.64520  0.02590  Biso   1.000  H
  C81      1.0000 0.89770  0.74580  0.01970  Biso   1.000  C
  H56      1.0000 0.90860  0.77870  0.04980  Biso   1.000  H
  C82      1.0000 0.84810  0.77570  0.98960  Biso   1.000  C
  C83      1.0000 0.83360  0.72670  0.94550  Biso   1.000  C
  C84      1.0000 0.80970  0.85580  0.00180  Biso   1.000  C
  H57      1.0000 0.81860  0.89040  0.03170  Biso   1.000  H
  C85      1.0000 0.76050  0.88290  0.97080  Biso   1.000  C
  H58      1.0000 0.73600  0.93590  0.97960  Biso   1.000  H
  C86      1.0000 0.74610  0.83310  0.92610  Biso   1.000  C
  C87      1.0000 0.78260  0.75340  0.91380  Biso   1.000  C
  C88      1.0000 0.72450  0.72470  0.84150  Biso   1.000  C
  H59      1.0000 0.71620  0.68780  0.81220  Biso   1.000  H
  C89      1.0000 0.68620  0.80320  0.85040  Biso   1.000  C
  H60      1.0000 0.65320  0.81880  0.82730  Biso   1.000  H
  C90      1.0000 0.69630  0.85670  0.89200  Biso   1.000  C
  H61      1.0000 0.67040  0.90970  0.89830  Biso   1.000  H
  C91      1.0000 0.76870  0.49620  0.77330  Biso   1.000  C
  H62      1.0000 0.75670  0.44850  0.79590  Biso   1.000  H
  C92      1.0000 0.74690  0.48730  0.72390  Biso   1.000  C
  H63      1.0000 0.72070  0.43530  0.71330  Biso   1.000  H
  C93      1.0000 0.76500  0.55770  0.69040  Biso   1.000  C
  H64      1.0000 0.75120  0.55340  0.65650  Biso   1.000  H
  C94      1.0000 0.80290  0.63350  0.70710  Biso   1.000  C
  C95      1.0000 0.82330  0.63690  0.75720  Biso   1.000  C
  C96      1.0000 0.86280  0.71210  0.77590  Biso   1.000  C
  C97      1.0000 0.88370  0.78410  0.74540  Biso   1.000  C
  C98      1.0000 0.86080  0.77870  0.69430  Biso   1.000  C
  H65      1.0000 0.87260  0.82790  0.67240  Biso   1.000  H
  C99      1.0000 0.82430  0.70870  0.67650  Biso   1.000  C
  H66      1.0000 0.81190  0.70830  0.64230  Biso   1.000  H
  C100     1.0000 0.91800  0.77630  0.84430  Biso   1.000  C
  H67      1.0000 0.93140  0.77280  0.87820  Biso   1.000  H
  C101     1.0000 0.93960  0.85180  0.81610  Biso   1.000  C
  H68      1.0000 0.96600  0.89980  0.83100  Biso   1.000  H
  C102     1.0000 0.92270  0.85620  0.76780  Biso   1.000  C
  H69      1.0000 0.93700  0.90780  0.74850  Biso   1.000  H
  Ru4      1.0000 0.33843  0.09796  0.86153  Biso   1.000  Ru
  Br4      1.0000 0.56876  0.97280  0.79859  Biso   1.000  Br
  N19      1.0000 0.40710  0.99810  0.85773  Biso   1.000  N
  N20      1.0000 0.30200  0.97600  0.89190  Biso   1.000  N
  N21      1.0000 0.36740  0.14920  0.93030  Biso   1.000  N
  N22      1.0000 0.27150  0.19950  0.87170  Biso   1.000  N
  N23      1.0000 0.30530  0.06800  0.79060  Biso   1.000  N
  N24      1.0000 0.37920  0.20870  0.82540  Biso   1.000  N
  C103     1.0000 0.45800  0.01460  0.83650  Biso   1.000  C
  H70      1.0000 0.46430  0.07680  0.82220  Biso   1.000  H
  C104     1.0000 0.50190  0.94330  0.83470  Biso   1.000  C
  C105     1.0000 0.49500  0.85530  0.85730  Biso   1.000  C
  H71      1.0000 0.52580  0.80700  0.85740  Biso   1.000  H
  C106     1.0000 0.44290  0.83700  0.88010  Biso   1.000  C
  H72      1.0000 0.43730  0.77670  0.89640  Biso   1.000  H
  C107     1.0000 0.39840  0.90990  0.87850  Biso   1.000  C
  C108     1.0000 0.33910  0.89630  0.89800  Biso   1.000  C
  C109     1.0000 0.32070  0.81070  0.91870  Biso   1.000  C
  H73      1.0000 0.34750  0.75660  0.92290  Biso   1.000  H
  C110     1.0000 0.26220  0.80460  0.93330  Biso   1.000  C
  H74      1.0000 0.24860  0.74600  0.94760  Biso   1.000  H
  C111     1.0000 0.22400  0.88440  0.92700  Biso   1.000  C
  H75      1.0000 0.18390  0.88120  0.93660  Biso   1.000  H
  C112     1.0000 0.24520  0.96880  0.90630  Biso   1.000  C
  H76      1.0000 0.21900  0.02360  0.90210  Biso   1.000  H
  C113     1.0000 0.41460  0.12170  0.96050  Biso   1.000  C
  H77      1.0000 0.43840  0.06820  0.95100  Biso   1.000  H
  C114     1.0000 0.43100  0.16780  0.00540  Biso   1.000  C
  H78      1.0000 0.46480  0.14520  0.02590  Biso   1.000  H
  C115     1.0000 0.39770  0.24580  0.01970  Biso   1.000  C
  H79      1.0000 0.40860  0.27870  0.04980  Biso   1.000  H
  C116     1.0000 0.34810  0.27570  0.98960  Biso   1.000  C
  C117     1.0000 0.33360  0.22670  0.94550  Biso   1.000  C
  C118     1.0000 0.30970  0.35580  0.00180  Biso   1.000  C
  H80      1.0000 0.31860  0.39040  0.03170  Biso   1.000  H
  C119     1.0000 0.26050  0.38290  0.97080  Biso   1.000  C
  H81      1.0000 0.23600  0.43590  0.97960  Biso   1.000  H
  C120     1.0000 0.24610  0.33310  0.92610  Biso   1.000  C
  C121     1.0000 0.28260  0.25340  0.91380  Biso   1.000  C
  C122     1.0000 0.22450  0.22470  0.84150  Biso   1.000  C
  H82      1.0000 0.21620  0.18780  0.81220  Biso   1.000  H
  C123     1.0000 0.18620  0.30320  0.85040  Biso   1.000  C
  H83      1.0000 0.15320  0.31880  0.82730  Biso   1.000  H
  C124     1.0000 0.19630  0.35670  0.89200  Biso   1.000  C
  H84      1.0000 0.17040  0.40970  0.89830  Biso   1.000  H
  C125     1.0000 0.26870  0.99620  0.77330  Biso   1.000  C
  H85      1.0000 0.25670  0.94850  0.79590  Biso   1.000  H
  C126     1.0000 0.24690  0.98730  0.72390  Biso   1.000  C
  H86      1.0000 0.22070  0.93530  0.71330  Biso   1.000  H
  C127     1.0000 0.26500  0.05770  0.69040  Biso   1.000  C
  H87      1.0000 0.25120  0.05340  0.65650  Biso   1.000  H
  C128     1.0000 0.30290  0.13350  0.70710  Biso   1.000  C
  C129     1.0000 0.32330  0.13690  0.75720  Biso   1.000  C
  C130     1.0000 0.36280  0.21210  0.77590  Biso   1.000  C
  C131     1.0000 0.38370  0.28410  0.74540  Biso   1.000  C
  C132     1.0000 0.36080  0.27870  0.69430  Biso   1.000  C
  H88      1.0000 0.37260  0.32790  0.67240  Biso   1.000  H
  C133     1.0000 0.32430  0.20870  0.67650  Biso   1.000  C
  H89      1.0000 0.31190  0.20830  0.64230  Biso   1.000  H
  C134     1.0000 0.41800  0.27630  0.84430  Biso   1.000  C
  H90      1.0000 0.43140  0.27280  0.87820  Biso   1.000  H
  C135     1.0000 0.43960  0.35180  0.81610  Biso   1.000  C
  H91      1.0000 0.46600  0.39980  0.83100  Biso   1.000  H
  C136     1.0000 0.42270  0.35620  0.76780  Biso   1.000  C
  H92      1.0000 0.43700  0.40780  0.74850  Biso   1.000  H
  Ru5      1.0000 0.83843  0.40204  0.36153  Biso   1.000  Ru
  Br5      1.0000 0.06876  0.52720  0.29859  Biso   1.000  Br
  N25      1.0000 0.90710  0.50190  0.35773  Biso   1.000  N
  N26      1.0000 0.80200  0.52400  0.39190  Biso   1.000  N
  N27      1.0000 0.86740  0.35080  0.43030  Biso   1.000  N
  N28      1.0000 0.77150  0.30050  0.37170  Biso   1.000  N
  N29      1.0000 0.80530  0.43200  0.29060  Biso   1.000  N
  N30      1.0000 0.87920  0.29130  0.32540  Biso   1.000  N
  C137     1.0000 0.95800  0.48540  0.33650  Biso   1.000  C
  H93      1.0000 0.96430  0.42320  0.32220  Biso   1.000  H
  C138     1.0000 0.00190  0.55670  0.33470  Biso   1.000  C
  C139     1.0000 0.99500  0.64470  0.35730  Biso   1.000  C
  H94      1.0000 0.02580  0.69300  0.35740  Biso   1.000  H
  C140     1.0000 0.94290  0.66300  0.38010  Biso   1.000  C
  H95      1.0000 0.93730  0.72330  0.39640  Biso   1.000  H
  C141     1.0000 0.89840  0.59010  0.37850  Biso   1.000  C
  C142     1.0000 0.83910  0.60370  0.39800  Biso   1.000  C
  C143     1.0000 0.82070  0.68930  0.41870  Biso   1.000  C
  H96      1.0000 0.84750  0.74340  0.42290  Biso   1.000  H
  C144     1.0000 0.76220  0.69540  0.43330  Biso   1.000  C
  H97      1.0000 0.74860  0.75400  0.44760  Biso   1.000  H
  C145     1.0000 0.72400  0.61560  0.42700  Biso   1.000  C
  H98      1.0000 0.68390  0.61880  0.43660  Biso   1.000  H
  C146     1.0000 0.74520  0.53120  0.40630  Biso   1.000  C
  H99      1.0000 0.71900  0.47640  0.40210  Biso   1.000  H
  C147     1.0000 0.91460  0.37830  0.46050  Biso   1.000  C
  H100     1.0000 0.93840  0.43180  0.45100  Biso   1.000  H
  C148     1.0000 0.93100  0.33220  0.50540  Biso   1.000  C
  H101     1.0000 0.96480  0.35480  0.52590  Biso   1.000  H
  C149     1.0000 0.89770  0.25420  0.51970  Biso   1.000  C
  H102     1.0000 0.90860  0.22130  0.54980  Biso   1.000  H
  C150     1.0000 0.84810  0.22430  0.48960  Biso   1.000  C
  C151     1.0000 0.83360  0.27330  0.44550  Biso   1.000  C
  C152     1.0000 0.80970  0.14420  0.50180  Biso   1.000  C
  H103     1.0000 0.81860  0.10960  0.53170  Biso   1.000  H
  C153     1.0000 0.76050  0.11710  0.47080  Biso   1.000  C
  H104     1.0000 0.73600  0.06410  0.47960  Biso   1.000  H
  C154     1.0000 0.74610  0.16690  0.42610  Biso   1.000  C
  C155     1.0000 0.78260  0.24660  0.41380  Biso   1.000  C
  C156     1.0000 0.72450  0.27530  0.34150  Biso   1.000  C
  H105     1.0000 0.71620  0.31220  0.31220  Biso   1.000  H
  C157     1.0000 0.68620  0.19680  0.35040  Biso   1.000  C
  H106     1.0000 0.65320  0.18120  0.32730  Biso   1.000  H
  C158     1.0000 0.69630  0.14330  0.39200  Biso   1.000  C
  H107     1.0000 0.67040  0.09030  0.39830  Biso   1.000  H
  C159     1.0000 0.76870  0.50380  0.27330  Biso   1.000  C
  H108     1.0000 0.75670  0.55150  0.29590  Biso   1.000  H
  C160     1.0000 0.74690  0.51270  0.22390  Biso   1.000  C
  H109     1.0000 0.72070  0.56470  0.21330  Biso   1.000  H
  C161     1.0000 0.76500  0.44230  0.19040  Biso   1.000  C
  H110     1.0000 0.75120  0.44660  0.15650  Biso   1.000  H
  C162     1.0000 0.80290  0.36650  0.20710  Biso   1.000  C
  C163     1.0000 0.82330  0.36310  0.25720  Biso   1.000  C
  C164     1.0000 0.86280  0.28790  0.27590  Biso   1.000  C
  C165     1.0000 0.88370  0.21590  0.24540  Biso   1.000  C
  C166     1.0000 0.86080  0.22130  0.19430  Biso   1.000  C
  H111     1.0000 0.87260  0.17210  0.17240  Biso   1.000  H
  C167     1.0000 0.82430  0.29130  0.17650  Biso   1.000  C
  H112     1.0000 0.81190  0.29170  0.14230  Biso   1.000  H
  C168     1.0000 0.91800  0.22370  0.34430  Biso   1.000  C
  H113     1.0000 0.93140  0.22720  0.37820  Biso   1.000  H
  C169     1.0000 0.93960  0.14820  0.31610  Biso   1.000  C
  H114     1.0000 0.96600  0.10020  0.33100  Biso   1.000  H
  C170     1.0000 0.92270  0.14380  0.26780  Biso   1.000  C
  H115     1.0000 0.93700  0.09220  0.24850  Biso   1.000  H
  Ru6      1.0000 0.33843  0.90204  0.36153  Biso   1.000  Ru
  Br6      1.0000 0.56876  0.02720  0.29859  Biso   1.000  Br
  N31      1.0000 0.40710  0.00190  0.35773  Biso   1.000  N
  N32      1.0000 0.30200  0.02400  0.39190  Biso   1.000  N
  N33      1.0000 0.36740  0.85080  0.43030  Biso   1.000  N
  N34      1.0000 0.27150  0.80050  0.37170  Biso   1.000  N
  N35      1.0000 0.30530  0.93200  0.29060  Biso   1.000  N
  N36      1.0000 0.37920  0.79130  0.32540  Biso   1.000  N
  C171     1.0000 0.45800  0.98540  0.33650  Biso   1.000  C
  H116     1.0000 0.46430  0.92320  0.32220  Biso   1.000  H
  C172     1.0000 0.50190  0.05670  0.33470  Biso   1.000  C
  C173     1.0000 0.49500  0.14470  0.35730  Biso   1.000  C
  H117     1.0000 0.52580  0.19300  0.35740  Biso   1.000  H
  C174     1.0000 0.44290  0.16300  0.38010  Biso   1.000  C
  H118     1.0000 0.43730  0.22330  0.39640  Biso   1.000  H
  C175     1.0000 0.39840  0.09010  0.37850  Biso   1.000  C
  C176     1.0000 0.33910  0.10370  0.39800  Biso   1.000  C
  C177     1.0000 0.32070  0.18930  0.41870  Biso   1.000  C
  H119     1.0000 0.34750  0.24340  0.42290  Biso   1.000  H
  C178     1.0000 0.26220  0.19540  0.43330  Biso   1.000  C
  H120     1.0000 0.24860  0.25400  0.44760  Biso   1.000  H
  C179     1.0000 0.22400  0.11560  0.42700  Biso   1.000  C
  H121     1.0000 0.18390  0.11880  0.43660  Biso   1.000  H
  C180     1.0000 0.24520  0.03120  0.40630  Biso   1.000  C
  H122     1.0000 0.21900  0.97640  0.40210  Biso   1.000  H
  C181     1.0000 0.41460  0.87830  0.46050  Biso   1.000  C
  H123     1.0000 0.43840  0.93180  0.45100  Biso   1.000  H
  C182     1.0000 0.43100  0.83220  0.50540  Biso   1.000  C
  H124     1.0000 0.46480  0.85480  0.52590  Biso   1.000  H
  C183     1.0000 0.39770  0.75420  0.51970  Biso   1.000  C
  H125     1.0000 0.40860  0.72130  0.54980  Biso   1.000  H
  C184     1.0000 0.34810  0.72430  0.48960  Biso   1.000  C
  C185     1.0000 0.33360  0.77330  0.44550  Biso   1.000  C
  C186     1.0000 0.30970  0.64420  0.50180  Biso   1.000  C
  H126     1.0000 0.31860  0.60960  0.53170  Biso   1.000  H
  C187     1.0000 0.26050  0.61710  0.47080  Biso   1.000  C
  H127     1.0000 0.23600  0.56410  0.47960  Biso   1.000  H
  C188     1.0000 0.24610  0.66690  0.42610  Biso   1.000  C
  C189     1.0000 0.28260  0.74660  0.41380  Biso   1.000  C
  C190     1.0000 0.22450  0.77530  0.34150  Biso   1.000  C
  H128     1.0000 0.21620  0.81220  0.31220  Biso   1.000  H
  C191     1.0000 0.18620  0.69680  0.35040  Biso   1.000  C
  H129     1.0000 0.15320  0.68120  0.32730  Biso   1.000  H
  C192     1.0000 0.19630  0.64330  0.39200  Biso   1.000  C
  H130     1.0000 0.17040  0.59030  0.39830  Biso   1.000  H
  C193     1.0000 0.26870  0.00380  0.27330  Biso   1.000  C
  H131     1.0000 0.25670  0.05150  0.29590  Biso   1.000  H
  C194     1.0000 0.24690  0.01270  0.22390  Biso   1.000  C
  H132     1.0000 0.22070  0.06470  0.21330  Biso   1.000  H
  C195     1.0000 0.26500  0.94230  0.19040  Biso   1.000  C
  H133     1.0000 0.25120  0.94660  0.15650  Biso   1.000  H
  C196     1.0000 0.30290  0.86650  0.20710  Biso   1.000  C
  C197     1.0000 0.32330  0.86310  0.25720  Biso   1.000  C
  C198     1.0000 0.36280  0.78790  0.27590  Biso   1.000  C
  C199     1.0000 0.38370  0.71590  0.24540  Biso   1.000  C
  C200     1.0000 0.36080  0.72130  0.19430  Biso   1.000  C
  H134     1.0000 0.37260  0.67210  0.17240  Biso   1.000  H
  C201     1.0000 0.32430  0.79130  0.17650  Biso   1.000  C
  H135     1.0000 0.31190  0.79170  0.14230  Biso   1.000  H
  C202     1.0000 0.41800  0.72370  0.34430  Biso   1.000  C
  H136     1.0000 0.43140  0.72720  0.37820  Biso   1.000  H
  C203     1.0000 0.43960  0.64820  0.31610  Biso   1.000  C
  H137     1.0000 0.46600  0.60020  0.33100  Biso   1.000  H
  C204     1.0000 0.42270  0.64380  0.26780  Biso   1.000  C
  H138     1.0000 0.43700  0.59220  0.24850  Biso   1.000  H
  Ru7      1.0000 0.16157  0.40204  0.13847  Biso   1.000  Ru
  Br7      1.0000 0.93124  0.52720  0.20141  Biso   1.000  Br
  N37      1.0000 0.09290  0.50190  0.14227  Biso   1.000  N
  N38      1.0000 0.19800  0.52400  0.10810  Biso   1.000  N
  N39      1.0000 0.13260  0.35080  0.06970  Biso   1.000  N
  N40      1.0000 0.22850  0.30050  0.12830  Biso   1.000  N
  N41      1.0000 0.19470  0.43200  0.20940  Biso   1.000  N
  N42      1.0000 0.12080  0.29130  0.17460  Biso   1.000  N
  C205     1.0000 0.04200  0.48540  0.16350  Biso   1.000  C
  H139     1.0000 0.03570  0.42320  0.17780  Biso   1.000  H
  C206     1.0000 0.99810  0.55670  0.16530  Biso   1.000  C
  C207     1.0000 0.00500  0.64470  0.14270  Biso   1.000  C
  H140     1.0000 0.97420  0.69300  0.14260  Biso   1.000  H
  C208     1.0000 0.05710  0.66300  0.11990  Biso   1.000  C
  H141     1.0000 0.06270  0.72330  0.10360  Biso   1.000  H
  C209     1.0000 0.10160  0.59010  0.12150  Biso   1.000  C
  C210     1.0000 0.16090  0.60370  0.10200  Biso   1.000  C
  C211     1.0000 0.17930  0.68930  0.08130  Biso   1.000  C
  H142     1.0000 0.15250  0.74340  0.07710  Biso   1.000  H
  C212     1.0000 0.23780  0.69540  0.06670  Biso   1.000  C
  H143     1.0000 0.25140  0.75400  0.05240  Biso   1.000  H
  C213     1.0000 0.27600  0.61560  0.07300  Biso   1.000  C
  H144     1.0000 0.31610  0.61880  0.06340  Biso   1.000  H
  C214     1.0000 0.25480  0.53120  0.09370  Biso   1.000  C
  H145     1.0000 0.28100  0.47640  0.09790  Biso   1.000  H
  C215     1.0000 0.08540  0.37830  0.03950  Biso   1.000  C
  H146     1.0000 0.06160  0.43180  0.04900  Biso   1.000  H
  C216     1.0000 0.06900  0.33220  0.99460  Biso   1.000  C
  H147     1.0000 0.03520  0.35480  0.97410  Biso   1.000  H
  C217     1.0000 0.10230  0.25420  0.98030  Biso   1.000  C
  H148     1.0000 0.09140  0.22130  0.95020  Biso   1.000  H
  C218     1.0000 0.15190  0.22430  0.01040  Biso   1.000  C
  C219     1.0000 0.16640  0.27330  0.05450  Biso   1.000  C
  C220     1.0000 0.19030  0.14420  0.99820  Biso   1.000  C
  H149     1.0000 0.18140  0.10960  0.96830  Biso   1.000  H
  C221     1.0000 0.23950  0.11710  0.02920  Biso   1.000  C
  H150     1.0000 0.26400  0.06410  0.02040  Biso   1.000  H
  C222     1.0000 0.25390  0.16690  0.07390  Biso   1.000  C
  C223     1.0000 0.21740  0.24660  0.08620  Biso   1.000  C
  C224     1.0000 0.27550  0.27530  0.15850  Biso   1.000  C
  H151     1.0000 0.28380  0.31220  0.18780  Biso   1.000  H
  C225     1.0000 0.31380  0.19680  0.14960  Biso   1.000  C
  H152     1.0000 0.34680  0.18120  0.17270  Biso   1.000  H
  C226     1.0000 0.30370  0.14330  0.10800  Biso   1.000  C
  H153     1.0000 0.32960  0.09030  0.10170  Biso   1.000  H
  C227     1.0000 0.23130  0.50380  0.22670  Biso   1.000  C
  H154     1.0000 0.24330  0.55150  0.20410  Biso   1.000  H
  C228     1.0000 0.25310  0.51270  0.27610  Biso   1.000  C
  H155     1.0000 0.27930  0.56470  0.28670  Biso   1.000  H
  C229     1.0000 0.23500  0.44230  0.30960  Biso   1.000  C
  H156     1.0000 0.24880  0.44660  0.34350  Biso   1.000  H
  C230     1.0000 0.19710  0.36650  0.29290  Biso   1.000  C
  C231     1.0000 0.17670  0.36310  0.24280  Biso   1.000  C
  C232     1.0000 0.13720  0.28790  0.22410  Biso   1.000  C
  C233     1.0000 0.11630  0.21590  0.25460  Biso   1.000  C
  C234     1.0000 0.13920  0.22130  0.30570  Biso   1.000  C
  H157     1.0000 0.12740  0.17210  0.32760  Biso   1.000  H
  C235     1.0000 0.17570  0.29130  0.32350  Biso   1.000  C
  H158     1.0000 0.18810  0.29170  0.35770  Biso   1.000  H
  C236     1.0000 0.08200  0.22370  0.15570  Biso   1.000  C
  H159     1.0000 0.06860  0.22720  0.12180  Biso   1.000  H
  C237     1.0000 0.06040  0.14820  0.18390  Biso   1.000  C
  H160     1.0000 0.03400  0.10020  0.16900  Biso   1.000  H
  C238     1.0000 0.07730  0.14380  0.23220  Biso   1.000  C
  H161     1.0000 0.06300  0.09220  0.25150  Biso   1.000  H
  Ru8      1.0000 0.66157  0.90204  0.13847  Biso   1.000  Ru
  Br8      1.0000 0.43124  0.02720  0.20141  Biso   1.000  Br
  N43      1.0000 0.59290  0.00190  0.14227  Biso   1.000  N
  N44      1.0000 0.69800  0.02400  0.10810  Biso   1.000  N
  N45      1.0000 0.63260  0.85080  0.06970  Biso   1.000  N
  N46      1.0000 0.72850  0.80050  0.12830  Biso   1.000  N
  N47      1.0000 0.69470  0.93200  0.20940  Biso   1.000  N
  N48      1.0000 0.62080  0.79130  0.17460  Biso   1.000  N
  C239     1.0000 0.54200  0.98540  0.16350  Biso   1.000  C
  H162     1.0000 0.53570  0.92320  0.17780  Biso   1.000  H
  C240     1.0000 0.49810  0.05670  0.16530  Biso   1.000  C
  C241     1.0000 0.50500  0.14470  0.14270  Biso   1.000  C
  H163     1.0000 0.47420  0.19300  0.14260  Biso   1.000  H
  C242     1.0000 0.55710  0.16300  0.11990  Biso   1.000  C
  H164     1.0000 0.56270  0.22330  0.10360  Biso   1.000  H
  C243     1.0000 0.60160  0.09010  0.12150  Biso   1.000  C
  C244     1.0000 0.66090  0.10370  0.10200  Biso   1.000  C
  C245     1.0000 0.67930  0.18930  0.08130  Biso   1.000  C
  H165     1.0000 0.65250  0.24340  0.07710  Biso   1.000  H
  C246     1.0000 0.73780  0.19540  0.06670  Biso   1.000  C
  H166     1.0000 0.75140  0.25400  0.05240  Biso   1.000  H
  C247     1.0000 0.77600  0.11560  0.07300  Biso   1.000  C
  H167     1.0000 0.81610  0.11880  0.06340  Biso   1.000  H
  C248     1.0000 0.75480  0.03120  0.09370  Biso   1.000  C
  H168     1.0000 0.78100  0.97640  0.09790  Biso   1.000  H
  C249     1.0000 0.58540  0.87830  0.03950  Biso   1.000  C
  H169     1.0000 0.56160  0.93180  0.04900  Biso   1.000  H
  C250     1.0000 0.56900  0.83220  0.99460  Biso   1.000  C
  H170     1.0000 0.53520  0.85480  0.97410  Biso   1.000  H
  C251     1.0000 0.60230  0.75420  0.98030  Biso   1.000  C
  H171     1.0000 0.59140  0.72130  0.95020  Biso   1.000  H
  C252     1.0000 0.65190  0.72430  0.01040  Biso   1.000  C
  C253     1.0000 0.66640  0.77330  0.05450  Biso   1.000  C
  C254     1.0000 0.69030  0.64420  0.99820  Biso   1.000  C
  H172     1.0000 0.68140  0.60960  0.96830  Biso   1.000  H
  C255     1.0000 0.73950  0.61710  0.02920  Biso   1.000  C
  H173     1.0000 0.76400  0.56410  0.02040  Biso   1.000  H
  C256     1.0000 0.75390  0.66690  0.07390  Biso   1.000  C
  C257     1.0000 0.71740  0.74660  0.08620  Biso   1.000  C
  C258     1.0000 0.77550  0.77530  0.15850  Biso   1.000  C
  H174     1.0000 0.78380  0.81220  0.18780  Biso   1.000  H
  C259     1.0000 0.81380  0.69680  0.14960  Biso   1.000  C
  H175     1.0000 0.84680  0.68120  0.17270  Biso   1.000  H
  C260     1.0000 0.80370  0.64330  0.10800  Biso   1.000  C
  H176     1.0000 0.82960  0.59030  0.10170  Biso   1.000  H
  C261     1.0000 0.73130  0.00380  0.22670  Biso   1.000  C
  H177     1.0000 0.74330  0.05150  0.20410  Biso   1.000  H
  C262     1.0000 0.75310  0.01270  0.27610  Biso   1.000  C
  H178     1.0000 0.77930  0.06470  0.28670  Biso   1.000  H
  C263     1.0000 0.73500  0.94230  0.30960  Biso   1.000  C
  H179     1.0000 0.74880  0.94660  0.34350  Biso   1.000  H
  C264     1.0000 0.69710  0.86650  0.29290  Biso   1.000  C
  C265     1.0000 0.67670  0.86310  0.24280  Biso   1.000  C
  C266     1.0000 0.63720  0.78790  0.22410  Biso   1.000  C
  C267     1.0000 0.61630  0.71590  0.25460  Biso   1.000  C
  C268     1.0000 0.63920  0.72130  0.30570  Biso   1.000  C
  H180     1.0000 0.62740  0.67210  0.32760  Biso   1.000  H
  C269     1.0000 0.67570  0.79130  0.32350  Biso   1.000  C
  H181     1.0000 0.68810  0.79170  0.35770  Biso   1.000  H
  C270     1.0000 0.58200  0.72370  0.15570  Biso   1.000  C
  H182     1.0000 0.56860  0.72720  0.12180  Biso   1.000  H
  C271     1.0000 0.56040  0.64820  0.18390  Biso   1.000  C
  H183     1.0000 0.53400  0.60020  0.16900  Biso   1.000  H
  C272     1.0000 0.57730  0.64380  0.23220  Biso   1.000  C
  H184     1.0000 0.56300  0.59220  0.25150  Biso   1.000  H
