data_image0
_cell_length_a       15.5372
_cell_length_b       23.9405
_cell_length_c       17.2239
_cell_angle_alpha    90
_cell_angle_beta     104.136
_cell_angle_gamma    90

_symmetry_space_group_name_H-M    "P 1"
_symmetry_int_tables_number       1

loop_
  _symmetry_equiv_pos_as_xyz
  'x, y, z'

loop_
  _atom_site_label
  _atom_site_occupancy
  _atom_site_fract_x
  _atom_site_fract_y
  _atom_site_fract_z
  _atom_site_thermal_displace_type
  _atom_site_B_iso_or_equiv
  _atom_site_type_symbol
  Zr1      1.0000 0.05745  0.56148  0.72709  Biso   1.000  Zr
  Fe1      1.0000 0.21852  0.52736  0.92768  Biso   1.000  Fe
  O1       1.0000 0.29690  0.44877  0.05419  Biso   1.000  O
  O2       1.0000 0.15380  0.49761  0.76022  Biso   1.000  O
  O3       1.0000 0.39760  0.52171  0.02774  Biso   1.000  O
  O4       1.0000 0.15900  0.61080  0.80140  Biso   1.000  O
  O5       1.0000 0.28210  0.54545  0.09830  Biso   1.000  O
  O6       1.0000 0.03290  0.54226  0.83901  Biso   1.000  O
  N1       1.0000 0.24930  0.45595  0.97540  Biso   1.000  N
  N2       1.0000 0.19220  0.48012  0.83560  Biso   1.000  N
  N3       1.0000 0.34170  0.54339  0.95970  Biso   1.000  N
  N4       1.0000 0.22640  0.58928  0.85890  Biso   1.000  N
  N5       1.0000 0.21270  0.55117  0.03160  Biso   1.000  N
  N6       1.0000 0.09390  0.54296  0.91020  Biso   1.000  N
  N7       1.0000 0.00890  0.49083  0.63680  Biso   1.000  N
  N8       1.0000 0.12850  0.57881  0.62830  Biso   1.000  N
  N9       1.0000 0.02270  0.65271  0.69710  Biso   1.000  N
  N10      1.0000 0.90790  0.56445  0.71100  Biso   1.000  N
  C1       1.0000 0.23960  0.41236  0.92900  Biso   1.000  C
  C2       1.0000 0.20090  0.42630  0.84720  Biso   1.000  C
  C3       1.0000 0.17530  0.38344  0.78260  Biso   1.000  C
  H1       1.0000 0.18810  0.39780  0.73260  Biso   1.000  H
  H2       1.0000 0.11080  0.37600  0.77200  Biso   1.000  H
  C4       1.0000 0.22700  0.32910  0.80760  Biso   1.000  C
  H3       1.0000 0.20080  0.29900  0.76960  Biso   1.000  H
  H4       1.0000 0.28930  0.33440  0.80460  Biso   1.000  H
  C5       1.0000 0.22560  0.31121  0.89210  Biso   1.000  C
  H5       1.0000 0.25660  0.27490  0.90420  Biso   1.000  H
  H6       1.0000 0.16330  0.30590  0.89520  Biso   1.000  H
  C6       1.0000 0.27030  0.35435  0.95500  Biso   1.000  C
  H7       1.0000 0.25590  0.34590  0.00670  Biso   1.000  H
  H8       1.0000 0.33560  0.35200  0.96310  Biso   1.000  H
  C7       1.0000 0.37350  0.58429  0.92500  Biso   1.000  C
  C8       1.0000 0.30610  0.60954  0.86310  Biso   1.000  C
  C9       1.0000 0.32580  0.65640  0.81230  Biso   1.000  C
  H9       1.0000 0.27490  0.68260  0.79970  Biso   1.000  H
  H10      1.0000 0.33450  0.64130  0.76130  Biso   1.000  H
  C10      1.0000 0.40890  0.68750  0.85610  Biso   1.000  C
  H11      1.0000 0.42620  0.71450  0.81910  Biso   1.000  H
  H12      1.0000 0.39620  0.70860  0.90140  Biso   1.000  H
  C11      1.0000 0.48520  0.64740  0.88750  Biso   1.000  C
  H13      1.0000 0.53940  0.66910  0.91180  Biso   1.000  H
  H14      1.0000 0.49690  0.62570  0.84230  Biso   1.000  H
  C12      1.0000 0.46530  0.60700  0.95010  Biso   1.000  C
  H15      1.0000 0.50830  0.57580  0.95830  Biso   1.000  H
  H16      1.0000 0.47260  0.62690  0.00180  Biso   1.000  H
  C13      1.0000 0.13670  0.56660  0.04330  Biso   1.000  C
  C14      1.0000 0.06750  0.56457  0.97080  Biso   1.000  C
  C15      1.0000 0.97600  0.58570  0.96730  Biso   1.000  C
  H17      1.0000 0.93520  0.55370  0.96530  Biso   1.000  H
  H18      1.0000 0.95460  0.60810  0.91810  Biso   1.000  H
  C16      1.0000 0.97580  0.62140  0.04030  Biso   1.000  C
  H19      1.0000 0.00580  0.65740  0.03590  Biso   1.000  H
  H20      1.0000 0.91380  0.62960  0.04170  Biso   1.000  H
  C17      1.0000 0.02270  0.59240  0.11750  Biso   1.000  C
  H21      1.0000 0.99470  0.55560  0.12070  Biso   1.000  H
  H22      1.0000 0.01590  0.61510  0.16370  Biso   1.000  H
  C18      1.0000 0.12130  0.58420  0.12230  Biso   1.000  C
  H23      1.0000 0.15330  0.61960  0.13930  Biso   1.000  H
  H24      1.0000 0.14560  0.55550  0.16300  Biso   1.000  H
  C19      1.0000 0.41460  0.48860  0.16970  Biso   1.000  C
  H25      1.0000 0.38610  0.46200  0.19970  Biso   1.000  H
  H26      1.0000 0.46720  0.46980  0.15890  Biso   1.000  H
  C20      1.0000 0.44620  0.53920  0.22340  Biso   1.000  C
  H27      1.0000 0.39420  0.55690  0.23690  Biso   1.000  H
  H28      1.0000 0.48630  0.52610  0.27390  Biso   1.000  H
  C21      1.0000 0.49440  0.58300  0.18640  Biso   1.000  C
  H29      1.0000 0.51370  0.61350  0.22560  Biso   1.000  H
  H30      1.0000 0.45240  0.59920  0.13910  Biso   1.000  H
  C22      1.0000 0.57490  0.56090  0.16080  Biso   1.000  C
  H31      1.0000 0.55550  0.53560  0.11530  Biso   1.000  H
  H32      1.0000 0.61350  0.54080  0.20560  Biso   1.000  H
  H33      1.0000 0.60770  0.59220  0.14520  Biso   1.000  H
  C23      1.0000 0.93480  0.45690  0.63130  Biso   1.000  C
  C24      1.0000 0.94550  0.40690  0.58760  Biso   1.000  C
  H34      1.0000 0.90350  0.37750  0.57340  Biso   1.000  H
  C25      1.0000 0.02530  0.40920  0.57030  Biso   1.000  C
  H35      1.0000 0.05100  0.38120  0.54400  Biso   1.000  H
  C26      1.0000 0.06410  0.46168  0.59920  Biso   1.000  C
  C27      1.0000 0.14530  0.48144  0.58840  Biso   1.000  C
  C28      1.0000 0.17220  0.53720  0.59840  Biso   1.000  C
  C29      1.0000 0.24120  0.56100  0.56700  Biso   1.000  C
  H36      1.0000 0.28280  0.54100  0.54540  Biso   1.000  H
  C30      1.0000 0.23660  0.61720  0.57380  Biso   1.000  C
  H37      1.0000 0.27310  0.64400  0.55680  Biso   1.000  H
  C31      1.0000 0.16540  0.62849  0.61200  Biso   1.000  C
  C32      1.0000 0.13790  0.68156  0.62750  Biso   1.000  C
  C33      1.0000 0.07200  0.69267  0.66820  Biso   1.000  C
  C34      1.0000 0.04600  0.74760  0.68750  Biso   1.000  C
  H38      1.0000 0.06800  0.78210  0.67290  Biso   1.000  H
  C35      1.0000 0.98430  0.74100  0.73020  Biso   1.000  C
  H39      1.0000 0.95640  0.77000  0.75280  Biso   1.000  H
  C36      1.0000 0.96850  0.68233  0.73510  Biso   1.000  C
  C37      1.0000 0.90330  0.65859  0.76920  Biso   1.000  C
  C38      1.0000 0.87340  0.60330  0.75530  Biso   1.000  C
  C39      1.0000 0.79940  0.57930  0.78020  Biso   1.000  C
  H40      1.0000 0.76640  0.59650  0.81330  Biso   1.000  H
  C40      1.0000 0.78590  0.52770  0.74760  Biso   1.000  C
  H41      1.0000 0.74040  0.50240  0.75230  Biso   1.000  H
  C41      1.0000 0.85310  0.51800  0.70430  Biso   1.000  C
  C42      1.0000 0.86300  0.46850  0.66380  Biso   1.000  C
  C43      1.0000 0.79070  0.42546  0.65360  Biso   1.000  C
  C44      1.0000 0.81030  0.37027  0.67620  Biso   1.000  C
  H42      1.0000 0.86960  0.35970  0.70060  Biso   1.000  H
  C45      1.0000 0.74300  0.33057  0.66300  Biso   1.000  C
  H43      1.0000 0.75640  0.29280  0.67850  Biso   1.000  H
  C46      1.0000 0.65610  0.34606  0.62730  Biso   1.000  C
  H44      1.0000 0.61010  0.31890  0.61830  Biso   1.000  H
  C47      1.0000 0.63650  0.40125  0.60470  Biso   1.000  C
  H45      1.0000 0.57720  0.41180  0.58030  Biso   1.000  H
  C48      1.0000 0.70380  0.44095  0.61780  Biso   1.000  C
  H46      1.0000 0.69040  0.47870  0.60240  Biso   1.000  H
  C49      1.0000 0.20620  0.44219  0.55856  Biso   1.000  C
  C50      1.0000 0.28860  0.43056  0.60936  Biso   1.000  C
  H47      1.0000 0.30380  0.44580  0.66190  Biso   1.000  H
  C51      1.0000 0.34855  0.39669  0.58330  Biso   1.000  C
  H48      1.0000 0.40480  0.38870  0.61800  Biso   1.000  H
  C52      1.0000 0.32620  0.37446  0.50640  Biso   1.000  C
  H49      1.0000 0.36720  0.35130  0.48860  Biso   1.000  H
  C53      1.0000 0.24390  0.38609  0.45563  Biso   1.000  C
  H50      1.0000 0.22870  0.37090  0.40310  Biso   1.000  H
  C54      1.0000 0.18393  0.41996  0.48169  Biso   1.000  C
  H51      1.0000 0.12770  0.42790  0.44700  Biso   1.000  H
  C55      1.0000 0.18110  0.73058  0.59653  Biso   1.000  C
  C56      1.0000 0.15490  0.74406  0.51569  Biso   1.000  C
  H52      1.0000 0.10910  0.72330  0.48100  Biso   1.000  H
  C57      1.0000 0.19550  0.78798  0.48562  Biso   1.000  C
  H53      1.0000 0.17760  0.79720  0.43040  Biso   1.000  H
  C58      1.0000 0.26240  0.81841  0.53640  Biso   1.000  C
  H54      1.0000 0.29020  0.84840  0.51590  Biso   1.000  H
  C59      1.0000 0.28870  0.80493  0.61720  Biso   1.000  C
  H55      1.0000 0.33440  0.82570  0.65200  Biso   1.000  H
  C60      1.0000 0.24800  0.76102  0.64731  Biso   1.000  C
  H56      1.0000 0.26600  0.75180  0.70260  Biso   1.000  H
  C61      1.0000 0.86350  0.69556  0.82180  Biso   1.000  C
  C62      1.0000 0.92110  0.72052  0.88710  Biso   1.000  C
  H57      1.0000 0.98320  0.71410  0.89700  Biso   1.000  H
  C63      1.0000 0.88780  0.75483  0.93800  Biso   1.000  C
  H58      1.0000 0.92720  0.77190  0.98270  Biso   1.000  H
  C64      1.0000 0.79700  0.76419  0.92360  Biso   1.000  C
  H59      1.0000 0.77430  0.78760  0.95840  Biso   1.000  H
  C65      1.0000 0.73940  0.73924  0.85820  Biso   1.000  C
  H60      1.0000 0.67740  0.74560  0.84830  Biso   1.000  H
  C66      1.0000 0.77270  0.70493  0.80730  Biso   1.000  C
  H61      1.0000 0.73340  0.68790  0.76270  Biso   1.000  H
  B1       1.0000 0.34620  0.50160  0.08580  Biso   1.000  B
  Zr2      1.0000 0.94255  0.06148  0.77291  Biso   1.000  Zr
  Fe2      1.0000 0.78148  0.02736  0.57232  Biso   1.000  Fe
  O7       1.0000 0.70310  0.94877  0.44581  Biso   1.000  O
  O8       1.0000 0.84620  0.99761  0.73978  Biso   1.000  O
  O9       1.0000 0.60240  0.02171  0.47226  Biso   1.000  O
  O10      1.0000 0.84100  0.11080  0.69860  Biso   1.000  O
  O11      1.0000 0.71790  0.04545  0.40170  Biso   1.000  O
  O12      1.0000 0.96710  0.04226  0.66099  Biso   1.000  O
  N11      1.0000 0.75070  0.95595  0.52460  Biso   1.000  N
  N12      1.0000 0.80780  0.98012  0.66440  Biso   1.000  N
  N13      1.0000 0.65830  0.04339  0.54030  Biso   1.000  N
  N14      1.0000 0.77360  0.08928  0.64110  Biso   1.000  N
  N15      1.0000 0.78730  0.05117  0.46840  Biso   1.000  N
  N16      1.0000 0.90610  0.04296  0.58980  Biso   1.000  N
  N17      1.0000 0.99110  0.99083  0.86320  Biso   1.000  N
  N18      1.0000 0.87150  0.07881  0.87170  Biso   1.000  N
  N19      1.0000 0.97730  0.15271  0.80290  Biso   1.000  N
  N20      1.0000 0.09210  0.06445  0.78900  Biso   1.000  N
  C67      1.0000 0.76040  0.91236  0.57100  Biso   1.000  C
  C68      1.0000 0.79910  0.92630  0.65280  Biso   1.000  C
  C69      1.0000 0.82470  0.88344  0.71740  Biso   1.000  C
  H62      1.0000 0.81190  0.89780  0.76740  Biso   1.000  H
  H63      1.0000 0.88920  0.87600  0.72800  Biso   1.000  H
  C70      1.0000 0.77300  0.82910  0.69240  Biso   1.000  C
  H64      1.0000 0.79920  0.79900  0.73040  Biso   1.000  H
  H65      1.0000 0.71070  0.83440  0.69540  Biso   1.000  H
  C71      1.0000 0.77440  0.81121  0.60790  Biso   1.000  C
  H66      1.0000 0.74340  0.77490  0.59580  Biso   1.000  H
  H67      1.0000 0.83670  0.80590  0.60480  Biso   1.000  H
  C72      1.0000 0.72970  0.85435  0.54500  Biso   1.000  C
  H68      1.0000 0.74410  0.84590  0.49330  Biso   1.000  H
  H69      1.0000 0.66440  0.85200  0.53690  Biso   1.000  H
  C73      1.0000 0.62650  0.08429  0.57500  Biso   1.000  C
  C74      1.0000 0.69390  0.10954  0.63690  Biso   1.000  C
  C75      1.0000 0.67420  0.15640  0.68770  Biso   1.000  C
  H70      1.0000 0.72510  0.18260  0.70030  Biso   1.000  H
  H71      1.0000 0.66550  0.14130  0.73870  Biso   1.000  H
  C76      1.0000 0.59110  0.18750  0.64390  Biso   1.000  C
  H72      1.0000 0.57380  0.21450  0.68090  Biso   1.000  H
  H73      1.0000 0.60380  0.20860  0.59860  Biso   1.000  H
  C77      1.0000 0.51480  0.14740  0.61250  Biso   1.000  C
  H74      1.0000 0.46060  0.16910  0.58820  Biso   1.000  H
  H75      1.0000 0.50310  0.12570  0.65770  Biso   1.000  H
  C78      1.0000 0.53470  0.10700  0.54990  Biso   1.000  C
  H76      1.0000 0.49170  0.07580  0.54170  Biso   1.000  H
  H77      1.0000 0.52740  0.12690  0.49820  Biso   1.000  H
  C79      1.0000 0.86330  0.06660  0.45670  Biso   1.000  C
  C80      1.0000 0.93250  0.06457  0.52920  Biso   1.000  C
  C81      1.0000 0.02400  0.08570  0.53270  Biso   1.000  C
  H78      1.0000 0.06480  0.05370  0.53470  Biso   1.000  H
  H79      1.0000 0.04540  0.10810  0.58190  Biso   1.000  H
  C82      1.0000 0.02420  0.12140  0.45970  Biso   1.000  C
  H80      1.0000 0.99420  0.15740  0.46410  Biso   1.000  H
  H81      1.0000 0.08620  0.12960  0.45830  Biso   1.000  H
  C83      1.0000 0.97730  0.09240  0.38250  Biso   1.000  C
  H82      1.0000 0.00530  0.05560  0.37930  Biso   1.000  H
  H83      1.0000 0.98410  0.11510  0.33630  Biso   1.000  H
  C84      1.0000 0.87870  0.08420  0.37770  Biso   1.000  C
  H84      1.0000 0.84670  0.11960  0.36070  Biso   1.000  H
  H85      1.0000 0.85440  0.05550  0.33700  Biso   1.000  H
  C85      1.0000 0.58540  0.98860  0.33030  Biso   1.000  C
  H86      1.0000 0.61390  0.96200  0.30030  Biso   1.000  H
  H87      1.0000 0.53280  0.96980  0.34110  Biso   1.000  H
  C86      1.0000 0.55380  0.03920  0.27660  Biso   1.000  C
  H88      1.0000 0.60580  0.05690  0.26310  Biso   1.000  H
  H89      1.0000 0.51370  0.02610  0.22610  Biso   1.000  H
  C87      1.0000 0.50560  0.08300  0.31360  Biso   1.000  C
  H90      1.0000 0.48630  0.11350  0.27440  Biso   1.000  H
  H91      1.0000 0.54760  0.09920  0.36090  Biso   1.000  H
  C88      1.0000 0.42510  0.06090  0.33920  Biso   1.000  C
  H92      1.0000 0.44450  0.03560  0.38470  Biso   1.000  H
  H93      1.0000 0.38650  0.04080  0.29440  Biso   1.000  H
  H94      1.0000 0.39230  0.09220  0.35480  Biso   1.000  H
  C89      1.0000 0.06520  0.95690  0.86870  Biso   1.000  C
  C90      1.0000 0.05450  0.90690  0.91240  Biso   1.000  C
  H95      1.0000 0.09650  0.87750  0.92660  Biso   1.000  H
  C91      1.0000 0.97470  0.90920  0.92970  Biso   1.000  C
  H96      1.0000 0.94900  0.88120  0.95600  Biso   1.000  H
  C92      1.0000 0.93590  0.96168  0.90080  Biso   1.000  C
  C93      1.0000 0.85470  0.98144  0.91160  Biso   1.000  C
  C94      1.0000 0.82780  0.03720  0.90160  Biso   1.000  C
  C95      1.0000 0.75880  0.06100  0.93300  Biso   1.000  C
  H97      1.0000 0.71720  0.04100  0.95460  Biso   1.000  H
  C96      1.0000 0.76340  0.11720  0.92620  Biso   1.000  C
  H98      1.0000 0.72690  0.14400  0.94320  Biso   1.000  H
  C97      1.0000 0.83460  0.12849  0.88800  Biso   1.000  C
  C98      1.0000 0.86210  0.18156  0.87250  Biso   1.000  C
  C99      1.0000 0.92800  0.19267  0.83180  Biso   1.000  C
  C100     1.0000 0.95400  0.24760  0.81250  Biso   1.000  C
  H99      1.0000 0.93200  0.28210  0.82710  Biso   1.000  H
  C101     1.0000 0.01570  0.24100  0.76980  Biso   1.000  C
  H100     1.0000 0.04360  0.27000  0.74720  Biso   1.000  H
  C102     1.0000 0.03150  0.18233  0.76490  Biso   1.000  C
  C103     1.0000 0.09670  0.15859  0.73080  Biso   1.000  C
  C104     1.0000 0.12660  0.10330  0.74470  Biso   1.000  C
  C105     1.0000 0.20060  0.07930  0.71980  Biso   1.000  C
  H101     1.0000 0.23360  0.09650  0.68670  Biso   1.000  H
  C106     1.0000 0.21410  0.02770  0.75240  Biso   1.000  C
  H102     1.0000 0.25960  0.00240  0.74770  Biso   1.000  H
  C107     1.0000 0.14690  0.01800  0.79570  Biso   1.000  C
  C108     1.0000 0.13700  0.96850  0.83620  Biso   1.000  C
  C109     1.0000 0.20930  0.92546  0.84640  Biso   1.000  C
  C110     1.0000 0.18970  0.87027  0.82380  Biso   1.000  C
  H103     1.0000 0.13040  0.85970  0.79940  Biso   1.000  H
  C111     1.0000 0.25700  0.83057  0.83700  Biso   1.000  C
  H104     1.0000 0.24360  0.79280  0.82150  Biso   1.000  H
  C112     1.0000 0.34390  0.84606  0.87270  Biso   1.000  C
  H105     1.0000 0.38990  0.81890  0.88170  Biso   1.000  H
  C113     1.0000 0.36350  0.90125  0.89530  Biso   1.000  C
  H106     1.0000 0.42280  0.91180  0.91970  Biso   1.000  H
  C114     1.0000 0.29620  0.94095  0.88220  Biso   1.000  C
  H107     1.0000 0.30960  0.97870  0.89760  Biso   1.000  H
  C115     1.0000 0.79380  0.94219  0.94144  Biso   1.000  C
  C116     1.0000 0.71140  0.93056  0.89064  Biso   1.000  C
  H108     1.0000 0.69620  0.94580  0.83810  Biso   1.000  H
  C117     1.0000 0.65145  0.89669  0.91670  Biso   1.000  C
  H109     1.0000 0.59520  0.88870  0.88200  Biso   1.000  H
  C118     1.0000 0.67380  0.87446  0.99360  Biso   1.000  C
  H110     1.0000 0.63280  0.85130  0.01140  Biso   1.000  H
  C119     1.0000 0.75610  0.88609  0.04437  Biso   1.000  C
  H111     1.0000 0.77130  0.87090  0.09690  Biso   1.000  H
  C120     1.0000 0.81607  0.91996  0.01831  Biso   1.000  C
  H112     1.0000 0.87230  0.92790  0.05300  Biso   1.000  H
  C121     1.0000 0.81890  0.23058  0.90347  Biso   1.000  C
  C122     1.0000 0.84510  0.24406  0.98431  Biso   1.000  C
  H113     1.0000 0.89090  0.22330  0.01900  Biso   1.000  H
  C123     1.0000 0.80450  0.28798  0.01438  Biso   1.000  C
  H114     1.0000 0.82240  0.29720  0.06960  Biso   1.000  H
  C124     1.0000 0.73760  0.31841  0.96360  Biso   1.000  C
  H115     1.0000 0.70980  0.34840  0.98410  Biso   1.000  H
  C125     1.0000 0.71130  0.30493  0.88280  Biso   1.000  C
  H116     1.0000 0.66560  0.32570  0.84800  Biso   1.000  H
  C126     1.0000 0.75200  0.26102  0.85269  Biso   1.000  C
  H117     1.0000 0.73400  0.25180  0.79740  Biso   1.000  H
  C127     1.0000 0.13650  0.19556  0.67820  Biso   1.000  C
  C128     1.0000 0.07890  0.22052  0.61290  Biso   1.000  C
  H118     1.0000 0.01680  0.21410  0.60300  Biso   1.000  H
  C129     1.0000 0.11220  0.25483  0.56200  Biso   1.000  C
  H119     1.0000 0.07280  0.27190  0.51730  Biso   1.000  H
  C130     1.0000 0.20300  0.26419  0.57640  Biso   1.000  C
  H120     1.0000 0.22570  0.28760  0.54160  Biso   1.000  H
  C131     1.0000 0.26060  0.23924  0.64180  Biso   1.000  C
  H121     1.0000 0.32260  0.24560  0.65170  Biso   1.000  H
  C132     1.0000 0.22730  0.20493  0.69270  Biso   1.000  C
  H122     1.0000 0.26660  0.18790  0.73730  Biso   1.000  H
  B2       1.0000 0.65380  0.00160  0.41420  Biso   1.000  B
  Zr3      1.0000 0.94255  0.43852  0.27291  Biso   1.000  Zr
  Fe3      1.0000 0.78148  0.47264  0.07232  Biso   1.000  Fe
  O13      1.0000 0.70310  0.55123  0.94581  Biso   1.000  O
  O14      1.0000 0.84620  0.50239  0.23978  Biso   1.000  O
  O15      1.0000 0.60240  0.47829  0.97226  Biso   1.000  O
  O16      1.0000 0.84100  0.38920  0.19860  Biso   1.000  O
  O17      1.0000 0.71790  0.45455  0.90170  Biso   1.000  O
  O18      1.0000 0.96710  0.45774  0.16099  Biso   1.000  O
  N21      1.0000 0.75070  0.54405  0.02460  Biso   1.000  N
  N22      1.0000 0.80780  0.51988  0.16440  Biso   1.000  N
  N23      1.0000 0.65830  0.45661  0.04030  Biso   1.000  N
  N24      1.0000 0.77360  0.41072  0.14110  Biso   1.000  N
  N25      1.0000 0.78730  0.44883  0.96840  Biso   1.000  N
  N26      1.0000 0.90610  0.45704  0.08980  Biso   1.000  N
  N27      1.0000 0.99110  0.50917  0.36320  Biso   1.000  N
  N28      1.0000 0.87150  0.42119  0.37170  Biso   1.000  N
  N29      1.0000 0.97730  0.34729  0.30290  Biso   1.000  N
  N30      1.0000 0.09210  0.43555  0.28900  Biso   1.000  N
  C133     1.0000 0.76040  0.58764  0.07100  Biso   1.000  C
  C134     1.0000 0.79910  0.57370  0.15280  Biso   1.000  C
  C135     1.0000 0.82470  0.61656  0.21740  Biso   1.000  C
  H123     1.0000 0.81190  0.60220  0.26740  Biso   1.000  H
  H124     1.0000 0.88920  0.62400  0.22800  Biso   1.000  H
  C136     1.0000 0.77300  0.67090  0.19240  Biso   1.000  C
  H125     1.0000 0.79920  0.70100  0.23040  Biso   1.000  H
  H126     1.0000 0.71070  0.66560  0.19540  Biso   1.000  H
  C137     1.0000 0.77440  0.68879  0.10790  Biso   1.000  C
  H127     1.0000 0.74340  0.72510  0.09580  Biso   1.000  H
  H128     1.0000 0.83670  0.69410  0.10480  Biso   1.000  H
  C138     1.0000 0.72970  0.64565  0.04500  Biso   1.000  C
  H129     1.0000 0.74410  0.65410  0.99330  Biso   1.000  H
  H130     1.0000 0.66440  0.64800  0.03690  Biso   1.000  H
  C139     1.0000 0.62650  0.41571  0.07500  Biso   1.000  C
  C140     1.0000 0.69390  0.39046  0.13690  Biso   1.000  C
  C141     1.0000 0.67420  0.34360  0.18770  Biso   1.000  C
  H131     1.0000 0.72510  0.31740  0.20030  Biso   1.000  H
  H132     1.0000 0.66550  0.35870  0.23870  Biso   1.000  H
  C142     1.0000 0.59110  0.31250  0.14390  Biso   1.000  C
  H133     1.0000 0.57380  0.28550  0.18090  Biso   1.000  H
  H134     1.0000 0.60380  0.29140  0.09860  Biso   1.000  H
  C143     1.0000 0.51480  0.35260  0.11250  Biso   1.000  C
  H135     1.0000 0.46060  0.33090  0.08820  Biso   1.000  H
  H136     1.0000 0.50310  0.37430  0.15770  Biso   1.000  H
  C144     1.0000 0.53470  0.39300  0.04990  Biso   1.000  C
  H137     1.0000 0.49170  0.42420  0.04170  Biso   1.000  H
  H138     1.0000 0.52740  0.37310  0.99820  Biso   1.000  H
  C145     1.0000 0.86330  0.43340  0.95670  Biso   1.000  C
  C146     1.0000 0.93250  0.43543  0.02920  Biso   1.000  C
  C147     1.0000 0.02400  0.41430  0.03270  Biso   1.000  C
  H139     1.0000 0.06480  0.44630  0.03470  Biso   1.000  H
  H140     1.0000 0.04540  0.39190  0.08190  Biso   1.000  H
  C148     1.0000 0.02420  0.37860  0.95970  Biso   1.000  C
  H141     1.0000 0.99420  0.34260  0.96410  Biso   1.000  H
  H142     1.0000 0.08620  0.37040  0.95830  Biso   1.000  H
  C149     1.0000 0.97730  0.40760  0.88250  Biso   1.000  C
  H143     1.0000 0.00530  0.44440  0.87930  Biso   1.000  H
  H144     1.0000 0.98410  0.38490  0.83630  Biso   1.000  H
  C150     1.0000 0.87870  0.41580  0.87770  Biso   1.000  C
  H145     1.0000 0.84670  0.38040  0.86070  Biso   1.000  H
  H146     1.0000 0.85440  0.44450  0.83700  Biso   1.000  H
  C151     1.0000 0.58540  0.51140  0.83030  Biso   1.000  C
  H147     1.0000 0.61390  0.53800  0.80030  Biso   1.000  H
  H148     1.0000 0.53280  0.53020  0.84110  Biso   1.000  H
  C152     1.0000 0.55380  0.46080  0.77660  Biso   1.000  C
  H149     1.0000 0.60580  0.44310  0.76310  Biso   1.000  H
  H150     1.0000 0.51370  0.47390  0.72610  Biso   1.000  H
  C153     1.0000 0.50560  0.41700  0.81360  Biso   1.000  C
  H151     1.0000 0.48630  0.38650  0.77440  Biso   1.000  H
  H152     1.0000 0.54760  0.40080  0.86090  Biso   1.000  H
  C154     1.0000 0.42510  0.43910  0.83920  Biso   1.000  C
  H153     1.0000 0.44450  0.46440  0.88470  Biso   1.000  H
  H154     1.0000 0.38650  0.45920  0.79440  Biso   1.000  H
  H155     1.0000 0.39230  0.40780  0.85480  Biso   1.000  H
  C155     1.0000 0.06520  0.54310  0.36870  Biso   1.000  C
  C156     1.0000 0.05450  0.59310  0.41240  Biso   1.000  C
  H156     1.0000 0.09650  0.62250  0.42660  Biso   1.000  H
  C157     1.0000 0.97470  0.59080  0.42970  Biso   1.000  C
  H157     1.0000 0.94900  0.61880  0.45600  Biso   1.000  H
  C158     1.0000 0.93590  0.53832  0.40080  Biso   1.000  C
  C159     1.0000 0.85470  0.51856  0.41160  Biso   1.000  C
  C160     1.0000 0.82780  0.46280  0.40160  Biso   1.000  C
  C161     1.0000 0.75880  0.43900  0.43300  Biso   1.000  C
  H158     1.0000 0.71720  0.45900  0.45460  Biso   1.000  H
  C162     1.0000 0.76340  0.38280  0.42620  Biso   1.000  C
  H159     1.0000 0.72690  0.35600  0.44320  Biso   1.000  H
  C163     1.0000 0.83460  0.37151  0.38800  Biso   1.000  C
  C164     1.0000 0.86210  0.31844  0.37250  Biso   1.000  C
  C165     1.0000 0.92800  0.30733  0.33180  Biso   1.000  C
  C166     1.0000 0.95400  0.25240  0.31250  Biso   1.000  C
  H160     1.0000 0.93200  0.21790  0.32710  Biso   1.000  H
  C167     1.0000 0.01570  0.25900  0.26980  Biso   1.000  C
  H161     1.0000 0.04360  0.23000  0.24720  Biso   1.000  H
  C168     1.0000 0.03150  0.31767  0.26490  Biso   1.000  C
  C169     1.0000 0.09670  0.34141  0.23080  Biso   1.000  C
  C170     1.0000 0.12660  0.39670  0.24470  Biso   1.000  C
  C171     1.0000 0.20060  0.42070  0.21980  Biso   1.000  C
  H162     1.0000 0.23360  0.40350  0.18670  Biso   1.000  H
  C172     1.0000 0.21410  0.47230  0.25240  Biso   1.000  C
  H163     1.0000 0.25960  0.49760  0.24770  Biso   1.000  H
  C173     1.0000 0.14690  0.48200  0.29570  Biso   1.000  C
  C174     1.0000 0.13700  0.53150  0.33620  Biso   1.000  C
  C175     1.0000 0.20930  0.57454  0.34640  Biso   1.000  C
  C176     1.0000 0.18970  0.62973  0.32380  Biso   1.000  C
  H164     1.0000 0.13040  0.64030  0.29940  Biso   1.000  H
  C177     1.0000 0.25700  0.66943  0.33700  Biso   1.000  C
  H165     1.0000 0.24360  0.70720  0.32150  Biso   1.000  H
  C178     1.0000 0.34390  0.65394  0.37270  Biso   1.000  C
  H166     1.0000 0.38990  0.68110  0.38170  Biso   1.000  H
  C179     1.0000 0.36350  0.59875  0.39530  Biso   1.000  C
  H167     1.0000 0.42280  0.58820  0.41970  Biso   1.000  H
  C180     1.0000 0.29620  0.55905  0.38220  Biso   1.000  C
  H168     1.0000 0.30960  0.52130  0.39760  Biso   1.000  H
  C181     1.0000 0.79380  0.55781  0.44144  Biso   1.000  C
  C182     1.0000 0.71140  0.56944  0.39064  Biso   1.000  C
  H169     1.0000 0.69620  0.55420  0.33810  Biso   1.000  H
  C183     1.0000 0.65145  0.60331  0.41670  Biso   1.000  C
  H170     1.0000 0.59520  0.61130  0.38200  Biso   1.000  H
  C184     1.0000 0.67380  0.62554  0.49360  Biso   1.000  C
  H171     1.0000 0.63280  0.64870  0.51140  Biso   1.000  H
  C185     1.0000 0.75610  0.61391  0.54437  Biso   1.000  C
  H172     1.0000 0.77130  0.62910  0.59690  Biso   1.000  H
  C186     1.0000 0.81607  0.58004  0.51831  Biso   1.000  C
  H173     1.0000 0.87230  0.57210  0.55300  Biso   1.000  H
  C187     1.0000 0.81890  0.26942  0.40347  Biso   1.000  C
  C188     1.0000 0.84510  0.25594  0.48431  Biso   1.000  C
  H174     1.0000 0.89090  0.27670  0.51900  Biso   1.000  H
  C189     1.0000 0.80450  0.21202  0.51438  Biso   1.000  C
  H175     1.0000 0.82240  0.20280  0.56960  Biso   1.000  H
  C190     1.0000 0.73760  0.18159  0.46360  Biso   1.000  C
  H176     1.0000 0.70980  0.15160  0.48410  Biso   1.000  H
  C191     1.0000 0.71130  0.19507  0.38280  Biso   1.000  C
  H177     1.0000 0.66560  0.17430  0.34800  Biso   1.000  H
  C192     1.0000 0.75200  0.23898  0.35269  Biso   1.000  C
  H178     1.0000 0.73400  0.24820  0.29740  Biso   1.000  H
  C193     1.0000 0.13650  0.30444  0.17820  Biso   1.000  C
  C194     1.0000 0.07890  0.27948  0.11290  Biso   1.000  C
  H179     1.0000 0.01680  0.28590  0.10300  Biso   1.000  H
  C195     1.0000 0.11220  0.24517  0.06200  Biso   1.000  C
  H180     1.0000 0.07280  0.22810  0.01730  Biso   1.000  H
  C196     1.0000 0.20300  0.23581  0.07640  Biso   1.000  C
  H181     1.0000 0.22570  0.21240  0.04160  Biso   1.000  H
  C197     1.0000 0.26060  0.26076  0.14180  Biso   1.000  C
  H182     1.0000 0.32260  0.25440  0.15170  Biso   1.000  H
  C198     1.0000 0.22730  0.29507  0.19270  Biso   1.000  C
  H183     1.0000 0.26660  0.31210  0.23730  Biso   1.000  H
  B3       1.0000 0.65380  0.49840  0.91420  Biso   1.000  B
  Zr4      1.0000 0.05745  0.93852  0.22709  Biso   1.000  Zr
  Fe4      1.0000 0.21852  0.97264  0.42768  Biso   1.000  Fe
  O19      1.0000 0.29690  0.05123  0.55419  Biso   1.000  O
  O20      1.0000 0.15380  0.00239  0.26022  Biso   1.000  O
  O21      1.0000 0.39760  0.97829  0.52774  Biso   1.000  O
  O22      1.0000 0.15900  0.88920  0.30140  Biso   1.000  O
  O23      1.0000 0.28210  0.95455  0.59830  Biso   1.000  O
  O24      1.0000 0.03290  0.95774  0.33901  Biso   1.000  O
  N31      1.0000 0.24930  0.04405  0.47540  Biso   1.000  N
  N32      1.0000 0.19220  0.01988  0.33560  Biso   1.000  N
  N33      1.0000 0.34170  0.95661  0.45970  Biso   1.000  N
  N34      1.0000 0.22640  0.91072  0.35890  Biso   1.000  N
  N35      1.0000 0.21270  0.94883  0.53160  Biso   1.000  N
  N36      1.0000 0.09390  0.95704  0.41020  Biso   1.000  N
  N37      1.0000 0.00890  0.00917  0.13680  Biso   1.000  N
  N38      1.0000 0.12850  0.92119  0.12830  Biso   1.000  N
  N39      1.0000 0.02270  0.84729  0.19710  Biso   1.000  N
  N40      1.0000 0.90790  0.93555  0.21100  Biso   1.000  N
  C199     1.0000 0.23960  0.08764  0.42900  Biso   1.000  C
  C200     1.0000 0.20090  0.07370  0.34720  Biso   1.000  C
  C201     1.0000 0.17530  0.11656  0.28260  Biso   1.000  C
  H184     1.0000 0.18810  0.10220  0.23260  Biso   1.000  H
  H185     1.0000 0.11080  0.12400  0.27200  Biso   1.000  H
  C202     1.0000 0.22700  0.17090  0.30760  Biso   1.000  C
  H186     1.0000 0.20080  0.20100  0.26960  Biso   1.000  H
  H187     1.0000 0.28930  0.16560  0.30460  Biso   1.000  H
  C203     1.0000 0.22560  0.18879  0.39210  Biso   1.000  C
  H188     1.0000 0.25660  0.22510  0.40420  Biso   1.000  H
  H189     1.0000 0.16330  0.19410  0.39520  Biso   1.000  H
  C204     1.0000 0.27030  0.14565  0.45500  Biso   1.000  C
  H190     1.0000 0.25590  0.15410  0.50670  Biso   1.000  H
  H191     1.0000 0.33560  0.14800  0.46310  Biso   1.000  H
  C205     1.0000 0.37350  0.91571  0.42500  Biso   1.000  C
  C206     1.0000 0.30610  0.89046  0.36310  Biso   1.000  C
  C207     1.0000 0.32580  0.84360  0.31230  Biso   1.000  C
  H192     1.0000 0.27490  0.81740  0.29970  Biso   1.000  H
  H193     1.0000 0.33450  0.85870  0.26130  Biso   1.000  H
  C208     1.0000 0.40890  0.81250  0.35610  Biso   1.000  C
  H194     1.0000 0.42620  0.78550  0.31910  Biso   1.000  H
  H195     1.0000 0.39620  0.79140  0.40140  Biso   1.000  H
  C209     1.0000 0.48520  0.85260  0.38750  Biso   1.000  C
  H196     1.0000 0.53940  0.83090  0.41180  Biso   1.000  H
  H197     1.0000 0.49690  0.87430  0.34230  Biso   1.000  H
  C210     1.0000 0.46530  0.89300  0.45010  Biso   1.000  C
  H198     1.0000 0.50830  0.92420  0.45830  Biso   1.000  H
  H199     1.0000 0.47260  0.87310  0.50180  Biso   1.000  H
  C211     1.0000 0.13670  0.93340  0.54330  Biso   1.000  C
  C212     1.0000 0.06750  0.93543  0.47080  Biso   1.000  C
  C213     1.0000 0.97600  0.91430  0.46730  Biso   1.000  C
  H200     1.0000 0.93520  0.94630  0.46530  Biso   1.000  H
  H201     1.0000 0.95460  0.89190  0.41810  Biso   1.000  H
  C214     1.0000 0.97580  0.87860  0.54030  Biso   1.000  C
  H202     1.0000 0.00580  0.84260  0.53590  Biso   1.000  H
  H203     1.0000 0.91380  0.87040  0.54170  Biso   1.000  H
  C215     1.0000 0.02270  0.90760  0.61750  Biso   1.000  C
  H204     1.0000 0.99470  0.94440  0.62070  Biso   1.000  H
  H205     1.0000 0.01590  0.88490  0.66370  Biso   1.000  H
  C216     1.0000 0.12130  0.91580  0.62230  Biso   1.000  C
  H206     1.0000 0.15330  0.88040  0.63930  Biso   1.000  H
  H207     1.0000 0.14560  0.94450  0.66300  Biso   1.000  H
  C217     1.0000 0.41460  0.01140  0.66970  Biso   1.000  C
  H208     1.0000 0.38610  0.03800  0.69970  Biso   1.000  H
  H209     1.0000 0.46720  0.03020  0.65890  Biso   1.000  H
  C218     1.0000 0.44620  0.96080  0.72340  Biso   1.000  C
  H210     1.0000 0.39420  0.94310  0.73690  Biso   1.000  H
  H211     1.0000 0.48630  0.97390  0.77390  Biso   1.000  H
  C219     1.0000 0.49440  0.91700  0.68640  Biso   1.000  C
  H212     1.0000 0.51370  0.88650  0.72560  Biso   1.000  H
  H213     1.0000 0.45240  0.90080  0.63910  Biso   1.000  H
  C220     1.0000 0.57490  0.93910  0.66080  Biso   1.000  C
  H214     1.0000 0.55550  0.96440  0.61530  Biso   1.000  H
  H215     1.0000 0.61350  0.95920  0.70560  Biso   1.000  H
  H216     1.0000 0.60770  0.90780  0.64520  Biso   1.000  H
  C221     1.0000 0.93480  0.04310  0.13130  Biso   1.000  C
  C222     1.0000 0.94550  0.09310  0.08760  Biso   1.000  C
  H217     1.0000 0.90350  0.12250  0.07340  Biso   1.000  H
  C223     1.0000 0.02530  0.09080  0.07030  Biso   1.000  C
  H218     1.0000 0.05100  0.11880  0.04400  Biso   1.000  H
  C224     1.0000 0.06410  0.03832  0.09920  Biso   1.000  C
  C225     1.0000 0.14530  0.01856  0.08840  Biso   1.000  C
  C226     1.0000 0.17220  0.96280  0.09840  Biso   1.000  C
  C227     1.0000 0.24120  0.93900  0.06700  Biso   1.000  C
  H219     1.0000 0.28280  0.95900  0.04540  Biso   1.000  H
  C228     1.0000 0.23660  0.88280  0.07380  Biso   1.000  C
  H220     1.0000 0.27310  0.85600  0.05680  Biso   1.000  H
  C229     1.0000 0.16540  0.87151  0.11200  Biso   1.000  C
  C230     1.0000 0.13790  0.81844  0.12750  Biso   1.000  C
  C231     1.0000 0.07200  0.80733  0.16820  Biso   1.000  C
  C232     1.0000 0.04600  0.75240  0.18750  Biso   1.000  C
  H221     1.0000 0.06800  0.71790  0.17290  Biso   1.000  H
  C233     1.0000 0.98430  0.75900  0.23020  Biso   1.000  C
  H222     1.0000 0.95640  0.73000  0.25280  Biso   1.000  H
  C234     1.0000 0.96850  0.81767  0.23510  Biso   1.000  C
  C235     1.0000 0.90330  0.84141  0.26920  Biso   1.000  C
  C236     1.0000 0.87340  0.89670  0.25530  Biso   1.000  C
  C237     1.0000 0.79940  0.92070  0.28020  Biso   1.000  C
  H223     1.0000 0.76640  0.90350  0.31330  Biso   1.000  H
  C238     1.0000 0.78590  0.97230  0.24760  Biso   1.000  C
  H224     1.0000 0.74040  0.99760  0.25230  Biso   1.000  H
  C239     1.0000 0.85310  0.98200  0.20430  Biso   1.000  C
  C240     1.0000 0.86300  0.03150  0.16380  Biso   1.000  C
  C241     1.0000 0.79070  0.07454  0.15360  Biso   1.000  C
  C242     1.0000 0.81030  0.12973  0.17620  Biso   1.000  C
  H225     1.0000 0.86960  0.14030  0.20060  Biso   1.000  H
  C243     1.0000 0.74300  0.16943  0.16300  Biso   1.000  C
  H226     1.0000 0.75640  0.20720  0.17850  Biso   1.000  H
  C244     1.0000 0.65610  0.15394  0.12730  Biso   1.000  C
  H227     1.0000 0.61010  0.18110  0.11830  Biso   1.000  H
  C245     1.0000 0.63650  0.09875  0.10470  Biso   1.000  C
  H228     1.0000 0.57720  0.08820  0.08030  Biso   1.000  H
  C246     1.0000 0.70380  0.05905  0.11780  Biso   1.000  C
  H229     1.0000 0.69040  0.02130  0.10240  Biso   1.000  H
  C247     1.0000 0.20620  0.05781  0.05856  Biso   1.000  C
  C248     1.0000 0.28860  0.06944  0.10936  Biso   1.000  C
  H230     1.0000 0.30380  0.05420  0.16190  Biso   1.000  H
  C249     1.0000 0.34855  0.10331  0.08330  Biso   1.000  C
  H231     1.0000 0.40480  0.11130  0.11800  Biso   1.000  H
  C250     1.0000 0.32620  0.12554  0.00640  Biso   1.000  C
  H232     1.0000 0.36720  0.14870  0.98860  Biso   1.000  H
  C251     1.0000 0.24390  0.11391  0.95563  Biso   1.000  C
  H233     1.0000 0.22870  0.12910  0.90310  Biso   1.000  H
  C252     1.0000 0.18393  0.08004  0.98169  Biso   1.000  C
  H234     1.0000 0.12770  0.07210  0.94700  Biso   1.000  H
  C253     1.0000 0.18110  0.76942  0.09653  Biso   1.000  C
  C254     1.0000 0.15490  0.75594  0.01569  Biso   1.000  C
  H235     1.0000 0.10910  0.77670  0.98100  Biso   1.000  H
  C255     1.0000 0.19550  0.71202  0.98562  Biso   1.000  C
  H236     1.0000 0.17760  0.70280  0.93040  Biso   1.000  H
  C256     1.0000 0.26240  0.68159  0.03640  Biso   1.000  C
  H237     1.0000 0.29020  0.65160  0.01590  Biso   1.000  H
  C257     1.0000 0.28870  0.69507  0.11720  Biso   1.000  C
  H238     1.0000 0.33440  0.67430  0.15200  Biso   1.000  H
  C258     1.0000 0.24800  0.73898  0.14731  Biso   1.000  C
  H239     1.0000 0.26600  0.74820  0.20260  Biso   1.000  H
  C259     1.0000 0.86350  0.80444  0.32180  Biso   1.000  C
  C260     1.0000 0.92110  0.77948  0.38710  Biso   1.000  C
  H240     1.0000 0.98320  0.78590  0.39700  Biso   1.000  H
  C261     1.0000 0.88780  0.74517  0.43800  Biso   1.000  C
  H241     1.0000 0.92720  0.72810  0.48270  Biso   1.000  H
  C262     1.0000 0.79700  0.73581  0.42360  Biso   1.000  C
  H242     1.0000 0.77430  0.71240  0.45840  Biso   1.000  H
  C263     1.0000 0.73940  0.76076  0.35820  Biso   1.000  C
  H243     1.0000 0.67740  0.75440  0.34830  Biso   1.000  H
  C264     1.0000 0.77270  0.79507  0.30730  Biso   1.000  C
  H244     1.0000 0.73340  0.81210  0.26270  Biso   1.000  H
  B4       1.0000 0.34620  0.99840  0.58580  Biso   1.000  B
