data_image0
_cell_length_a       11.0718
_cell_length_b       10.7185
_cell_length_c       15.1433
_cell_angle_alpha    90
_cell_angle_beta     91.817
_cell_angle_gamma    90

_symmetry_space_group_name_H-M    "P 1"
_symmetry_int_tables_number       1

loop_
  _symmetry_equiv_pos_as_xyz
  'x, y, z'

loop_
  _atom_site_label
  _atom_site_occupancy
  _atom_site_fract_x
  _atom_site_fract_y
  _atom_site_fract_z
  _atom_site_thermal_displace_type
  _atom_site_B_iso_or_equiv
  _atom_site_type_symbol
  Zn1      1.0000 0.73613  0.46774  0.92387  Biso   1.000  Zn
  C1       1.0000 0.57880  0.92950  0.15710  Biso   1.000  C
  H1       1.0000 0.55360  0.00100  0.11950  Biso   1.000  H
  H2       1.0000 0.50600  0.89870  0.18660  Biso   1.000  H
  O1       1.0000 0.73190  0.32420  0.00528  Biso   1.000  O
  O2       1.0000 0.90800  0.40600  0.04721  Biso   1.000  O
  O3       1.0000 0.58790  0.46810  0.84789  Biso   1.000  O
  O4       1.0000 0.65520  0.29620  0.78475  Biso   1.000  O
  N1       1.0000 0.66430  0.97410  0.22447  Biso   1.000  N
  H3       1.0000 0.65580  0.95010  0.27950  Biso   1.000  H
  N2       1.0000 0.69510  0.62520  0.99366  Biso   1.000  N
  C2       1.0000 0.77390  0.68340  0.04930  Biso   1.000  C
  H4       1.0000 0.85510  0.65460  0.05280  Biso   1.000  H
  C3       1.0000 0.74240  0.78230  0.10130  Biso   1.000  C
  H5       1.0000 0.80130  0.82050  0.13940  Biso   1.000  H
  C4       1.0000 0.62460  0.82680  0.09810  Biso   1.000  C
  C5       1.0000 0.54390  0.76820  0.04000  Biso   1.000  C
  H6       1.0000 0.46280  0.79710  0.03440  Biso   1.000  H
  C6       1.0000 0.58000  0.66940  0.99070  Biso   1.000  C
  H7       1.0000 0.52220  0.62970  0.95250  Biso   1.000  H
  C7       1.0000 0.82880  0.32550  0.05400  Biso   1.000  C
  C8       1.0000 0.84180  0.22470  0.12320  Biso   1.000  C
  C9       1.0000 0.94970  0.21610  0.17240  Biso   1.000  C
  H8       1.0000 0.01470  0.27080  0.16050  Biso   1.000  H
  C10      1.0000 0.96210  0.12750  0.23864  Biso   1.000  C
  C11      1.0000 0.74790  0.14350  0.13851  Biso   1.000  C
  H9       1.0000 0.67530  0.14890  0.10350  Biso   1.000  H
  C12      1.0000 0.75880  0.05320  0.20510  Biso   1.000  C
  C13      1.0000 0.57830  0.37710  0.79320  Biso   1.000  C
  C14      1.0000 0.86750  0.04750  0.25440  Biso   1.000  C
  H10      1.0000 0.87660  0.98690  0.29990  Biso   1.000  H
  Zn2      1.0000 0.23613  0.03226  0.42387  Biso   1.000  Zn
  C15      1.0000 0.07880  0.57050  0.65710  Biso   1.000  C
  H11      1.0000 0.05360  0.49900  0.61950  Biso   1.000  H
  H12      1.0000 0.00600  0.60130  0.68660  Biso   1.000  H
  O5       1.0000 0.23190  0.17580  0.50528  Biso   1.000  O
  O6       1.0000 0.40800  0.09400  0.54721  Biso   1.000  O
  O7       1.0000 0.08790  0.03190  0.34789  Biso   1.000  O
  O8       1.0000 0.15520  0.20380  0.28475  Biso   1.000  O
  N3       1.0000 0.16430  0.52590  0.72447  Biso   1.000  N
  H13      1.0000 0.15580  0.54990  0.77950  Biso   1.000  H
  N4       1.0000 0.19510  0.87480  0.49366  Biso   1.000  N
  C16      1.0000 0.27390  0.81660  0.54930  Biso   1.000  C
  H14      1.0000 0.35510  0.84540  0.55280  Biso   1.000  H
  C17      1.0000 0.24240  0.71770  0.60130  Biso   1.000  C
  H15      1.0000 0.30130  0.67950  0.63940  Biso   1.000  H
  C18      1.0000 0.12460  0.67320  0.59810  Biso   1.000  C
  C19      1.0000 0.04390  0.73180  0.54000  Biso   1.000  C
  H16      1.0000 0.96280  0.70290  0.53440  Biso   1.000  H
  C20      1.0000 0.08000  0.83060  0.49070  Biso   1.000  C
  H17      1.0000 0.02220  0.87030  0.45250  Biso   1.000  H
  C21      1.0000 0.32880  0.17450  0.55400  Biso   1.000  C
  C22      1.0000 0.34180  0.27530  0.62320  Biso   1.000  C
  C23      1.0000 0.44970  0.28390  0.67240  Biso   1.000  C
  H18      1.0000 0.51470  0.22920  0.66050  Biso   1.000  H
  C24      1.0000 0.46210  0.37250  0.73864  Biso   1.000  C
  C25      1.0000 0.24790  0.35650  0.63851  Biso   1.000  C
  H19      1.0000 0.17530  0.35110  0.60350  Biso   1.000  H
  C26      1.0000 0.25880  0.44680  0.70510  Biso   1.000  C
  C27      1.0000 0.07830  0.12290  0.29320  Biso   1.000  C
  C28      1.0000 0.36750  0.45250  0.75440  Biso   1.000  C
  H20      1.0000 0.37660  0.51310  0.79990  Biso   1.000  H
  Zn3      1.0000 0.76387  0.96774  0.57613  Biso   1.000  Zn
  C29      1.0000 0.92120  0.42950  0.34290  Biso   1.000  C
  H21      1.0000 0.94640  0.50100  0.38050  Biso   1.000  H
  H22      1.0000 0.99400  0.39870  0.31340  Biso   1.000  H
  O9       1.0000 0.76810  0.82420  0.49472  Biso   1.000  O
  O10      1.0000 0.59200  0.90600  0.45279  Biso   1.000  O
  O11      1.0000 0.91210  0.96810  0.65211  Biso   1.000  O
  O12      1.0000 0.84480  0.79620  0.71525  Biso   1.000  O
  N5       1.0000 0.83570  0.47410  0.27553  Biso   1.000  N
  H23      1.0000 0.84420  0.45010  0.22050  Biso   1.000  H
  N6       1.0000 0.80490  0.12520  0.50634  Biso   1.000  N
  C30      1.0000 0.72610  0.18340  0.45070  Biso   1.000  C
  H24      1.0000 0.64490  0.15460  0.44720  Biso   1.000  H
  C31      1.0000 0.75760  0.28230  0.39870  Biso   1.000  C
  H25      1.0000 0.69870  0.32050  0.36060  Biso   1.000  H
  C32      1.0000 0.87540  0.32680  0.40190  Biso   1.000  C
  C33      1.0000 0.95610  0.26820  0.46000  Biso   1.000  C
  H26      1.0000 0.03720  0.29710  0.46560  Biso   1.000  H
  C34      1.0000 0.92000  0.16940  0.50930  Biso   1.000  C
  H27      1.0000 0.97780  0.12970  0.54750  Biso   1.000  H
  C35      1.0000 0.67120  0.82550  0.44600  Biso   1.000  C
  C36      1.0000 0.65820  0.72470  0.37680  Biso   1.000  C
  C37      1.0000 0.55030  0.71610  0.32760  Biso   1.000  C
  H28      1.0000 0.48530  0.77080  0.33950  Biso   1.000  H
  C38      1.0000 0.53790  0.62750  0.26136  Biso   1.000  C
  C39      1.0000 0.75210  0.64350  0.36149  Biso   1.000  C
  H29      1.0000 0.82470  0.64890  0.39650  Biso   1.000  H
  C40      1.0000 0.74120  0.55320  0.29490  Biso   1.000  C
  C41      1.0000 0.92170  0.87710  0.70680  Biso   1.000  C
  C42      1.0000 0.63250  0.54750  0.24560  Biso   1.000  C
  H30      1.0000 0.62340  0.48690  0.20010  Biso   1.000  H
  Zn4      1.0000 0.26387  0.53226  0.07613  Biso   1.000  Zn
  C43      1.0000 0.42120  0.07050  0.84290  Biso   1.000  C
  H31      1.0000 0.44640  0.99900  0.88050  Biso   1.000  H
  H32      1.0000 0.49400  0.10130  0.81340  Biso   1.000  H
  O13      1.0000 0.26810  0.67580  0.99472  Biso   1.000  O
  O14      1.0000 0.09200  0.59400  0.95279  Biso   1.000  O
  O15      1.0000 0.41210  0.53190  0.15211  Biso   1.000  O
  O16      1.0000 0.34480  0.70380  0.21525  Biso   1.000  O
  N7       1.0000 0.33570  0.02590  0.77553  Biso   1.000  N
  H33      1.0000 0.34420  0.04990  0.72050  Biso   1.000  H
  N8       1.0000 0.30490  0.37480  0.00634  Biso   1.000  N
  C44      1.0000 0.22610  0.31660  0.95070  Biso   1.000  C
  H34      1.0000 0.14490  0.34540  0.94720  Biso   1.000  H
  C45      1.0000 0.25760  0.21770  0.89870  Biso   1.000  C
  H35      1.0000 0.19870  0.17950  0.86060  Biso   1.000  H
  C46      1.0000 0.37540  0.17320  0.90190  Biso   1.000  C
  C47      1.0000 0.45610  0.23180  0.96000  Biso   1.000  C
  H36      1.0000 0.53720  0.20290  0.96560  Biso   1.000  H
  C48      1.0000 0.42000  0.33060  0.00930  Biso   1.000  C
  H37      1.0000 0.47780  0.37030  0.04750  Biso   1.000  H
  C49      1.0000 0.17120  0.67450  0.94600  Biso   1.000  C
  C50      1.0000 0.15820  0.77530  0.87680  Biso   1.000  C
  C51      1.0000 0.05030  0.78390  0.82760  Biso   1.000  C
  H38      1.0000 0.98530  0.72920  0.83950  Biso   1.000  H
  C52      1.0000 0.03790  0.87250  0.76136  Biso   1.000  C
  C53      1.0000 0.25210  0.85650  0.86149  Biso   1.000  C
  H39      1.0000 0.32470  0.85110  0.89650  Biso   1.000  H
  C54      1.0000 0.24120  0.94680  0.79490  Biso   1.000  C
  C55      1.0000 0.42170  0.62290  0.20680  Biso   1.000  C
  C56      1.0000 0.13250  0.95250  0.74560  Biso   1.000  C
  H40      1.0000 0.12340  0.01310  0.70010  Biso   1.000  H
