data_image0
_cell_length_a       10.9641
_cell_length_b       30.769
_cell_length_c       12.2946
_cell_angle_alpha    90
_cell_angle_beta     100.83
_cell_angle_gamma    90

_symmetry_space_group_name_H-M    "P 1"
_symmetry_int_tables_number       1

loop_
  _symmetry_equiv_pos_as_xyz
  'x, y, z'

loop_
  _atom_site_label
  _atom_site_occupancy
  _atom_site_fract_x
  _atom_site_fract_y
  _atom_site_fract_z
  _atom_site_thermal_displace_type
  _atom_site_B_iso_or_equiv
  _atom_site_type_symbol
  Ru1      1.0000 0.57560  0.63861  0.02316  Biso   1.000  Ru
  N1       1.0000 0.43010  0.62707  0.89590  Biso   1.000  N
  N2       1.0000 0.66260  0.60553  0.91450  Biso   1.000  N
  N3       1.0000 0.72960  0.64337  0.14710  Biso   1.000  N
  N4       1.0000 0.55800  0.58222  0.10930  Biso   1.000  N
  N5       1.0000 0.47390  0.67598  0.11360  Biso   1.000  N
  N6       1.0000 0.59990  0.69921  0.95820  Biso   1.000  N
  N7       1.0000 0.20390  0.51789  0.95210  Biso   1.000  N
  C1       1.0000 0.30880  0.63503  0.89540  Biso   1.000  C
  H1       1.0000 0.28610  0.64690  0.96000  Biso   1.000  H
  C2       1.0000 0.21640  0.62659  0.80490  Biso   1.000  C
  H2       1.0000 0.13200  0.63240  0.80760  Biso   1.000  H
  C3       1.0000 0.24810  0.60990  0.71240  Biso   1.000  C
  H3       1.0000 0.18590  0.60430  0.64900  Biso   1.000  H
  C4       1.0000 0.37100  0.60105  0.71010  Biso   1.000  C
  H4       1.0000 0.39390  0.58900  0.64560  Biso   1.000  H
  C5       1.0000 0.46020  0.60989  0.80250  Biso   1.000  C
  C6       1.0000 0.59210  0.59868  0.81240  Biso   1.000  C
  C7       1.0000 0.64440  0.58043  0.72850  Biso   1.000  C
  H5       1.0000 0.59640  0.57720  0.65620  Biso   1.000  H
  C8       1.0000 0.76570  0.56719  0.75120  Biso   1.000  C
  H6       1.0000 0.80220  0.55530  0.69370  Biso   1.000  H
  C9       1.0000 0.77990  0.59111  0.93550  Biso   1.000  C
  H7       1.0000 0.82700  0.59500  0.00800  Biso   1.000  H
  C10      1.0000 0.83640  0.57092  0.85740  Biso   1.000  C
  C11      1.0000 0.96450  0.55400  0.88910  Biso   1.000  C
  C12      1.0000 0.00890  0.52256  0.82510  Biso   1.000  C
  H8       1.0000 0.95860  0.51240  0.75850  Biso   1.000  H
  C13      1.0000 0.12730  0.50638  0.85990  Biso   1.000  C
  H9       1.0000 0.15620  0.48530  0.81410  Biso   1.000  H
  C14      1.0000 0.16010  0.54756  0.01200  Biso   1.000  C
  H10      1.0000 0.21190  0.55660  0.07890  Biso   1.000  H
  C15      1.0000 0.04350  0.56642  0.98390  Biso   1.000  C
  H11      1.0000 0.01850  0.58800  0.03050  Biso   1.000  H
  C16      1.0000 0.82080  0.67253  0.16130  Biso   1.000  C
  H12      1.0000 0.81800  0.69510  0.10820  Biso   1.000  H
  C17      1.0000 0.92000  0.67147  0.25020  Biso   1.000  C
  H13      1.0000 0.98280  0.69310  0.25650  Biso   1.000  H
  C18      1.0000 0.92780  0.63990  0.32760  Biso   1.000  C
  H14      1.0000 0.99600  0.63890  0.38800  Biso   1.000  H
  C19      1.0000 0.83300  0.60848  0.31730  Biso   1.000  C
  C20      1.0000 0.73640  0.61127  0.22560  Biso   1.000  C
  C21      1.0000 0.64320  0.57870  0.20580  Biso   1.000  C
  C22      1.0000 0.64290  0.54478  0.28030  Biso   1.000  C
  C23      1.0000 0.73930  0.54394  0.37750  Biso   1.000  C
  H15      1.0000 0.73890  0.52160  0.43080  Biso   1.000  H
  C24      1.0000 0.82930  0.57382  0.39450  Biso   1.000  C
  H16      1.0000 0.89210  0.57210  0.45920  Biso   1.000  H
  C25      1.0000 0.55050  0.51283  0.25350  Biso   1.000  C
  H17      1.0000 0.54490  0.48960  0.30320  Biso   1.000  H
  C26      1.0000 0.46950  0.51557  0.15580  Biso   1.000  C
  H18      1.0000 0.40780  0.49380  0.13610  Biso   1.000  H
  C27      1.0000 0.47640  0.54988  0.08490  Biso   1.000  C
  H19      1.0000 0.42050  0.55050  0.01580  Biso   1.000  H
  C28      1.0000 0.40600  0.66310  0.18750  Biso   1.000  C
  H20      1.0000 0.40460  0.63320  0.20650  Biso   1.000  H
  C29      1.0000 0.33710  0.69272  0.23730  Biso   1.000  C
  H21      1.0000 0.28950  0.68270  0.28940  Biso   1.000  H
  C30      1.0000 0.33750  0.73575  0.21210  Biso   1.000  C
  H22      1.0000 0.29090  0.75570  0.24680  Biso   1.000  H
  C31      1.0000 0.40650  0.75048  0.13510  Biso   1.000  C
  C32      1.0000 0.47290  0.71949  0.08700  Biso   1.000  C
  C33      1.0000 0.54250  0.73165  0.00550  Biso   1.000  C
  C34      1.0000 0.54920  0.77571  0.97600  Biso   1.000  C
  C35      1.0000 0.48200  0.80662  0.02720  Biso   1.000  C
  H23      1.0000 0.48500  0.83640  0.00740  Biso   1.000  H
  C36      1.0000 0.41470  0.79500  0.10250  Biso   1.000  C
  H24      1.0000 0.37140  0.81670  0.13520  Biso   1.000  H
  C37      1.0000 0.62220  0.78579  0.89620  Biso   1.000  C
  H25      1.0000 0.63250  0.81520  0.87580  Biso   1.000  H
  C38      1.0000 0.67760  0.75327  0.84890  Biso   1.000  C
  H26      1.0000 0.72520  0.75980  0.79380  Biso   1.000  H
  C39      1.0000 0.66480  0.71041  0.88100  Biso   1.000  C
  H27      1.0000 0.70400  0.68810  0.84650  Biso   1.000  H
  Ru2      1.0000 0.42440  0.13861  0.47684  Biso   1.000  Ru
  N8       1.0000 0.56990  0.12707  0.60410  Biso   1.000  N
  N9       1.0000 0.33740  0.10553  0.58550  Biso   1.000  N
  N10      1.0000 0.27040  0.14337  0.35290  Biso   1.000  N
  N11      1.0000 0.44200  0.08222  0.39070  Biso   1.000  N
  N12      1.0000 0.52610  0.17598  0.38640  Biso   1.000  N
  N13      1.0000 0.40010  0.19921  0.54180  Biso   1.000  N
  N14      1.0000 0.79610  0.01789  0.54790  Biso   1.000  N
  C40      1.0000 0.69120  0.13503  0.60460  Biso   1.000  C
  H28      1.0000 0.71390  0.14690  0.54000  Biso   1.000  H
  C41      1.0000 0.78360  0.12659  0.69510  Biso   1.000  C
  H29      1.0000 0.86800  0.13240  0.69240  Biso   1.000  H
  C42      1.0000 0.75190  0.10990  0.78760  Biso   1.000  C
  H30      1.0000 0.81410  0.10430  0.85100  Biso   1.000  H
  C43      1.0000 0.62900  0.10105  0.78990  Biso   1.000  C
  H31      1.0000 0.60610  0.08900  0.85440  Biso   1.000  H
  C44      1.0000 0.53980  0.10989  0.69750  Biso   1.000  C
  C45      1.0000 0.40790  0.09868  0.68760  Biso   1.000  C
  C46      1.0000 0.35560  0.08043  0.77150  Biso   1.000  C
  H32      1.0000 0.40360  0.07720  0.84380  Biso   1.000  H
  C47      1.0000 0.23430  0.06719  0.74880  Biso   1.000  C
  H33      1.0000 0.19780  0.05530  0.80630  Biso   1.000  H
  C48      1.0000 0.22010  0.09111  0.56450  Biso   1.000  C
  H34      1.0000 0.17300  0.09500  0.49200  Biso   1.000  H
  C49      1.0000 0.16360  0.07092  0.64260  Biso   1.000  C
  C50      1.0000 0.03550  0.05400  0.61090  Biso   1.000  C
  C51      1.0000 0.99110  0.02256  0.67490  Biso   1.000  C
  H35      1.0000 0.04140  0.01240  0.74150  Biso   1.000  H
  C52      1.0000 0.87270  0.00638  0.64010  Biso   1.000  C
  H36      1.0000 0.84380  0.98530  0.68590  Biso   1.000  H
  C53      1.0000 0.83990  0.04756  0.48800  Biso   1.000  C
  H37      1.0000 0.78810  0.05660  0.42110  Biso   1.000  H
  C54      1.0000 0.95650  0.06642  0.51610  Biso   1.000  C
  H38      1.0000 0.98150  0.08800  0.46950  Biso   1.000  H
  C55      1.0000 0.17920  0.17253  0.33870  Biso   1.000  C
  H39      1.0000 0.18200  0.19510  0.39180  Biso   1.000  H
  C56      1.0000 0.08000  0.17147  0.24980  Biso   1.000  C
  H40      1.0000 0.01720  0.19310  0.24350  Biso   1.000  H
  C57      1.0000 0.07220  0.13990  0.17240  Biso   1.000  C
  H41      1.0000 0.00400  0.13890  0.11200  Biso   1.000  H
  C58      1.0000 0.16700  0.10848  0.18270  Biso   1.000  C
  C59      1.0000 0.26360  0.11127  0.27440  Biso   1.000  C
  C60      1.0000 0.35680  0.07870  0.29420  Biso   1.000  C
  C61      1.0000 0.35710  0.04478  0.21970  Biso   1.000  C
  C62      1.0000 0.26070  0.04394  0.12250  Biso   1.000  C
  H42      1.0000 0.26110  0.02160  0.06920  Biso   1.000  H
  C63      1.0000 0.17070  0.07382  0.10550  Biso   1.000  C
  H43      1.0000 0.10790  0.07210  0.04080  Biso   1.000  H
  C64      1.0000 0.44950  0.01283  0.24650  Biso   1.000  C
  H44      1.0000 0.45510  0.98960  0.19680  Biso   1.000  H
  C65      1.0000 0.53050  0.01557  0.34420  Biso   1.000  C
  H45      1.0000 0.59220  0.99380  0.36390  Biso   1.000  H
  C66      1.0000 0.52360  0.04988  0.41510  Biso   1.000  C
  H46      1.0000 0.57950  0.05050  0.48420  Biso   1.000  H
  C67      1.0000 0.59400  0.16310  0.31250  Biso   1.000  C
  H47      1.0000 0.59540  0.13320  0.29350  Biso   1.000  H
  C68      1.0000 0.66290  0.19272  0.26270  Biso   1.000  C
  H48      1.0000 0.71050  0.18270  0.21060  Biso   1.000  H
  C69      1.0000 0.66250  0.23575  0.28790  Biso   1.000  C
  H49      1.0000 0.70910  0.25570  0.25320  Biso   1.000  H
  C70      1.0000 0.59350  0.25048  0.36490  Biso   1.000  C
  C71      1.0000 0.52710  0.21949  0.41300  Biso   1.000  C
  C72      1.0000 0.45750  0.23165  0.49450  Biso   1.000  C
  C73      1.0000 0.45080  0.27571  0.52400  Biso   1.000  C
  C74      1.0000 0.51800  0.30662  0.47280  Biso   1.000  C
  H50      1.0000 0.51500  0.33640  0.49260  Biso   1.000  H
  C75      1.0000 0.58530  0.29500  0.39750  Biso   1.000  C
  H51      1.0000 0.62860  0.31670  0.36480  Biso   1.000  H
  C76      1.0000 0.37780  0.28579  0.60380  Biso   1.000  C
  H52      1.0000 0.36750  0.31520  0.62420  Biso   1.000  H
  C77      1.0000 0.32240  0.25327  0.65110  Biso   1.000  C
  H53      1.0000 0.27480  0.25980  0.70620  Biso   1.000  H
  C78      1.0000 0.33520  0.21041  0.61900  Biso   1.000  C
  H54      1.0000 0.29600  0.18810  0.65350  Biso   1.000  H
  Ru3      1.0000 0.42440  0.36139  0.97684  Biso   1.000  Ru
  N15      1.0000 0.56990  0.37293  0.10410  Biso   1.000  N
  N16      1.0000 0.33740  0.39447  0.08550  Biso   1.000  N
  N17      1.0000 0.27040  0.35663  0.85290  Biso   1.000  N
  N18      1.0000 0.44200  0.41778  0.89070  Biso   1.000  N
  N19      1.0000 0.52610  0.32402  0.88640  Biso   1.000  N
  N20      1.0000 0.40010  0.30079  0.04180  Biso   1.000  N
  N21      1.0000 0.79610  0.48211  0.04790  Biso   1.000  N
  C79      1.0000 0.69120  0.36497  0.10460  Biso   1.000  C
  H55      1.0000 0.71390  0.35310  0.04000  Biso   1.000  H
  C80      1.0000 0.78360  0.37341  0.19510  Biso   1.000  C
  H56      1.0000 0.86800  0.36760  0.19240  Biso   1.000  H
  C81      1.0000 0.75190  0.39010  0.28760  Biso   1.000  C
  H57      1.0000 0.81410  0.39570  0.35100  Biso   1.000  H
  C82      1.0000 0.62900  0.39895  0.28990  Biso   1.000  C
  H58      1.0000 0.60610  0.41100  0.35440  Biso   1.000  H
  C83      1.0000 0.53980  0.39011  0.19750  Biso   1.000  C
  C84      1.0000 0.40790  0.40132  0.18760  Biso   1.000  C
  C85      1.0000 0.35560  0.41957  0.27150  Biso   1.000  C
  H59      1.0000 0.40360  0.42280  0.34380  Biso   1.000  H
  C86      1.0000 0.23430  0.43281  0.24880  Biso   1.000  C
  H60      1.0000 0.19780  0.44470  0.30630  Biso   1.000  H
  C87      1.0000 0.22010  0.40889  0.06450  Biso   1.000  C
  H61      1.0000 0.17300  0.40500  0.99200  Biso   1.000  H
  C88      1.0000 0.16360  0.42908  0.14260  Biso   1.000  C
  C89      1.0000 0.03550  0.44600  0.11090  Biso   1.000  C
  C90      1.0000 0.99110  0.47744  0.17490  Biso   1.000  C
  H62      1.0000 0.04140  0.48760  0.24150  Biso   1.000  H
  C91      1.0000 0.87270  0.49362  0.14010  Biso   1.000  C
  H63      1.0000 0.84380  0.51470  0.18590  Biso   1.000  H
  C92      1.0000 0.83990  0.45244  0.98800  Biso   1.000  C
  H64      1.0000 0.78810  0.44340  0.92110  Biso   1.000  H
  C93      1.0000 0.95650  0.43358  0.01610  Biso   1.000  C
  H65      1.0000 0.98150  0.41200  0.96950  Biso   1.000  H
  C94      1.0000 0.17920  0.32747  0.83870  Biso   1.000  C
  H66      1.0000 0.18200  0.30490  0.89180  Biso   1.000  H
  C95      1.0000 0.08000  0.32853  0.74980  Biso   1.000  C
  H67      1.0000 0.01720  0.30690  0.74350  Biso   1.000  H
  C96      1.0000 0.07220  0.36010  0.67240  Biso   1.000  C
  H68      1.0000 0.00400  0.36110  0.61200  Biso   1.000  H
  C97      1.0000 0.16700  0.39152  0.68270  Biso   1.000  C
  C98      1.0000 0.26360  0.38873  0.77440  Biso   1.000  C
  C99      1.0000 0.35680  0.42130  0.79420  Biso   1.000  C
  C100     1.0000 0.35710  0.45522  0.71970  Biso   1.000  C
  C101     1.0000 0.26070  0.45606  0.62250  Biso   1.000  C
  H69      1.0000 0.26110  0.47840  0.56920  Biso   1.000  H
  C102     1.0000 0.17070  0.42618  0.60550  Biso   1.000  C
  H70      1.0000 0.10790  0.42790  0.54080  Biso   1.000  H
  C103     1.0000 0.44950  0.48717  0.74650  Biso   1.000  C
  H71      1.0000 0.45510  0.51040  0.69680  Biso   1.000  H
  C104     1.0000 0.53050  0.48443  0.84420  Biso   1.000  C
  H72      1.0000 0.59220  0.50620  0.86390  Biso   1.000  H
  C105     1.0000 0.52360  0.45012  0.91510  Biso   1.000  C
  H73      1.0000 0.57950  0.44950  0.98420  Biso   1.000  H
  C106     1.0000 0.59400  0.33690  0.81250  Biso   1.000  C
  H74      1.0000 0.59540  0.36680  0.79350  Biso   1.000  H
  C107     1.0000 0.66290  0.30728  0.76270  Biso   1.000  C
  H75      1.0000 0.71050  0.31730  0.71060  Biso   1.000  H
  C108     1.0000 0.66250  0.26425  0.78790  Biso   1.000  C
  H76      1.0000 0.70910  0.24430  0.75320  Biso   1.000  H
  C109     1.0000 0.59350  0.24952  0.86490  Biso   1.000  C
  C110     1.0000 0.52710  0.28051  0.91300  Biso   1.000  C
  C111     1.0000 0.45750  0.26835  0.99450  Biso   1.000  C
  C112     1.0000 0.45080  0.22429  0.02400  Biso   1.000  C
  C113     1.0000 0.51800  0.19338  0.97280  Biso   1.000  C
  H77      1.0000 0.51500  0.16360  0.99260  Biso   1.000  H
  C114     1.0000 0.58530  0.20500  0.89750  Biso   1.000  C
  H78      1.0000 0.62860  0.18330  0.86480  Biso   1.000  H
  C115     1.0000 0.37780  0.21421  0.10380  Biso   1.000  C
  H79      1.0000 0.36750  0.18480  0.12420  Biso   1.000  H
  C116     1.0000 0.32240  0.24673  0.15110  Biso   1.000  C
  H80      1.0000 0.27480  0.24020  0.20620  Biso   1.000  H
  C117     1.0000 0.33520  0.28959  0.11900  Biso   1.000  C
  H81      1.0000 0.29600  0.31190  0.15350  Biso   1.000  H
  Ru4      1.0000 0.57560  0.86139  0.52316  Biso   1.000  Ru
  N22      1.0000 0.43010  0.87293  0.39590  Biso   1.000  N
  N23      1.0000 0.66260  0.89447  0.41450  Biso   1.000  N
  N24      1.0000 0.72960  0.85663  0.64710  Biso   1.000  N
  N25      1.0000 0.55800  0.91778  0.60930  Biso   1.000  N
  N26      1.0000 0.47390  0.82402  0.61360  Biso   1.000  N
  N27      1.0000 0.59990  0.80079  0.45820  Biso   1.000  N
  N28      1.0000 0.20390  0.98211  0.45210  Biso   1.000  N
  C118     1.0000 0.30880  0.86497  0.39540  Biso   1.000  C
  H82      1.0000 0.28610  0.85310  0.46000  Biso   1.000  H
  C119     1.0000 0.21640  0.87341  0.30490  Biso   1.000  C
  H83      1.0000 0.13200  0.86760  0.30760  Biso   1.000  H
  C120     1.0000 0.24810  0.89010  0.21240  Biso   1.000  C
  H84      1.0000 0.18590  0.89570  0.14900  Biso   1.000  H
  C121     1.0000 0.37100  0.89895  0.21010  Biso   1.000  C
  H85      1.0000 0.39390  0.91100  0.14560  Biso   1.000  H
  C122     1.0000 0.46020  0.89011  0.30250  Biso   1.000  C
  C123     1.0000 0.59210  0.90132  0.31240  Biso   1.000  C
  C124     1.0000 0.64440  0.91957  0.22850  Biso   1.000  C
  H86      1.0000 0.59640  0.92280  0.15620  Biso   1.000  H
  C125     1.0000 0.76570  0.93281  0.25120  Biso   1.000  C
  H87      1.0000 0.80220  0.94470  0.19370  Biso   1.000  H
  C126     1.0000 0.77990  0.90889  0.43550  Biso   1.000  C
  H88      1.0000 0.82700  0.90500  0.50800  Biso   1.000  H
  C127     1.0000 0.83640  0.92908  0.35740  Biso   1.000  C
  C128     1.0000 0.96450  0.94600  0.38910  Biso   1.000  C
  C129     1.0000 0.00890  0.97744  0.32510  Biso   1.000  C
  H89      1.0000 0.95860  0.98760  0.25850  Biso   1.000  H
  C130     1.0000 0.12730  0.99362  0.35990  Biso   1.000  C
  H90      1.0000 0.15620  0.01470  0.31410  Biso   1.000  H
  C131     1.0000 0.16010  0.95244  0.51200  Biso   1.000  C
  H91      1.0000 0.21190  0.94340  0.57890  Biso   1.000  H
  C132     1.0000 0.04350  0.93358  0.48390  Biso   1.000  C
  H92      1.0000 0.01850  0.91200  0.53050  Biso   1.000  H
  C133     1.0000 0.82080  0.82747  0.66130  Biso   1.000  C
  H93      1.0000 0.81800  0.80490  0.60820  Biso   1.000  H
  C134     1.0000 0.92000  0.82853  0.75020  Biso   1.000  C
  H94      1.0000 0.98280  0.80690  0.75650  Biso   1.000  H
  C135     1.0000 0.92780  0.86010  0.82760  Biso   1.000  C
  H95      1.0000 0.99600  0.86110  0.88800  Biso   1.000  H
  C136     1.0000 0.83300  0.89152  0.81730  Biso   1.000  C
  C137     1.0000 0.73640  0.88873  0.72560  Biso   1.000  C
  C138     1.0000 0.64320  0.92130  0.70580  Biso   1.000  C
  C139     1.0000 0.64290  0.95522  0.78030  Biso   1.000  C
  C140     1.0000 0.73930  0.95606  0.87750  Biso   1.000  C
  H96      1.0000 0.73890  0.97840  0.93080  Biso   1.000  H
  C141     1.0000 0.82930  0.92618  0.89450  Biso   1.000  C
  H97      1.0000 0.89210  0.92790  0.95920  Biso   1.000  H
  C142     1.0000 0.55050  0.98717  0.75350  Biso   1.000  C
  H98      1.0000 0.54490  0.01040  0.80320  Biso   1.000  H
  C143     1.0000 0.46950  0.98443  0.65580  Biso   1.000  C
  H99      1.0000 0.40780  0.00620  0.63610  Biso   1.000  H
  C144     1.0000 0.47640  0.95012  0.58490  Biso   1.000  C
  H100     1.0000 0.42050  0.94950  0.51580  Biso   1.000  H
  C145     1.0000 0.40600  0.83690  0.68750  Biso   1.000  C
  H101     1.0000 0.40460  0.86680  0.70650  Biso   1.000  H
  C146     1.0000 0.33710  0.80728  0.73730  Biso   1.000  C
  H102     1.0000 0.28950  0.81730  0.78940  Biso   1.000  H
  C147     1.0000 0.33750  0.76425  0.71210  Biso   1.000  C
  H103     1.0000 0.29090  0.74430  0.74680  Biso   1.000  H
  C148     1.0000 0.40650  0.74952  0.63510  Biso   1.000  C
  C149     1.0000 0.47290  0.78051  0.58700  Biso   1.000  C
  C150     1.0000 0.54250  0.76835  0.50550  Biso   1.000  C
  C151     1.0000 0.54920  0.72429  0.47600  Biso   1.000  C
  C152     1.0000 0.48200  0.69338  0.52720  Biso   1.000  C
  H104     1.0000 0.48500  0.66360  0.50740  Biso   1.000  H
  C153     1.0000 0.41470  0.70500  0.60250  Biso   1.000  C
  H105     1.0000 0.37140  0.68330  0.63520  Biso   1.000  H
  C154     1.0000 0.62220  0.71421  0.39620  Biso   1.000  C
  H106     1.0000 0.63250  0.68480  0.37580  Biso   1.000  H
  C155     1.0000 0.67760  0.74673  0.34890  Biso   1.000  C
  H107     1.0000 0.72520  0.74020  0.29380  Biso   1.000  H
  C156     1.0000 0.66480  0.78959  0.38100  Biso   1.000  C
  H108     1.0000 0.70400  0.81190  0.34650  Biso   1.000  H
