data_image0
_cell_length_a       6.9323
_cell_length_b       7.5416
_cell_length_c       12.9399
_cell_angle_alpha    99.422
_cell_angle_beta     91.316
_cell_angle_gamma    102.579

_symmetry_space_group_name_H-M    "P 1"
_symmetry_int_tables_number       1

loop_
  _symmetry_equiv_pos_as_xyz
  'x, y, z'

loop_
  _atom_site_label
  _atom_site_occupancy
  _atom_site_fract_x
  _atom_site_fract_y
  _atom_site_fract_z
  _atom_site_thermal_displace_type
  _atom_site_B_iso_or_equiv
  _atom_site_type_symbol
  O1       1.0000 0.14200  0.79980  0.88800  Biso   1.000  O
  O2       1.0000 0.99450  0.51900  0.81660  Biso   1.000  O
  O3       1.0000 0.48330  0.38750  0.15080  Biso   1.000  O
  O4       1.0000 0.27320  0.18350  0.21700  Biso   1.000  O
  N1       1.0000 0.33640  0.84310  0.60250  Biso   1.000  N
  N2       1.0000 0.28020  0.86910  0.70330  Biso   1.000  N
  N3       1.0000 0.17190  0.56590  0.63220  Biso   1.000  N
  N4       1.0000 0.10140  0.67170  0.81360  Biso   1.000  N
  N5       1.0000 0.41820  0.73550  0.40870  Biso   1.000  N
  N6       1.0000 0.45410  0.65200  0.31230  Biso   1.000  N
  N7       1.0000 0.28680  0.43310  0.39980  Biso   1.000  N
  N8       1.0000 0.37630  0.33960  0.22080  Biso   1.000  N
  C1       1.0000 0.18520  0.70180  0.71480  Biso   1.000  C
  C2       1.0000 0.26950  0.66220  0.56460  Biso   1.000  C
  C3       1.0000 0.31940  0.60220  0.45720  Biso   1.000  C
  C4       1.0000 0.37310  0.47580  0.31260  Biso   1.000  C
  O5       1.0000 0.85800  0.20020  0.11200  Biso   1.000  O
  O6       1.0000 0.00550  0.48100  0.18340  Biso   1.000  O
  O7       1.0000 0.51670  0.61250  0.84920  Biso   1.000  O
  O8       1.0000 0.72680  0.81650  0.78300  Biso   1.000  O
  N9       1.0000 0.66360  0.15690  0.39750  Biso   1.000  N
  N10      1.0000 0.71980  0.13090  0.29670  Biso   1.000  N
  N11      1.0000 0.82810  0.43410  0.36780  Biso   1.000  N
  N12      1.0000 0.89860  0.32830  0.18640  Biso   1.000  N
  N13      1.0000 0.58180  0.26450  0.59130  Biso   1.000  N
  N14      1.0000 0.54590  0.34800  0.68770  Biso   1.000  N
  N15      1.0000 0.71320  0.56690  0.60020  Biso   1.000  N
  N16      1.0000 0.62370  0.66040  0.77920  Biso   1.000  N
  C5       1.0000 0.81480  0.29820  0.28520  Biso   1.000  C
  C6       1.0000 0.73050  0.33780  0.43540  Biso   1.000  C
  C7       1.0000 0.68060  0.39780  0.54280  Biso   1.000  C
  C8       1.0000 0.62690  0.52420  0.68740  Biso   1.000  C
  Ni1      1.0000 0.50000  0.00000  0.50000  Biso   1.000  Ni
