data_image0
_cell_length_a       20.4062
_cell_length_b       20.4062
_cell_length_c       15.3975
_cell_angle_alpha    90
_cell_angle_beta     90
_cell_angle_gamma    90

_symmetry_space_group_name_H-M    "P 1"
_symmetry_int_tables_number       1

loop_
  _symmetry_equiv_pos_as_xyz
  'x, y, z'

loop_
  _atom_site_label
  _atom_site_occupancy
  _atom_site_fract_x
  _atom_site_fract_y
  _atom_site_fract_z
  _atom_site_thermal_displace_type
  _atom_site_B_iso_or_equiv
  _atom_site_type_symbol
  Cd1      1.0000 0.22439  0.57498  0.11403  Biso   1.000  Cd
  N1       1.0000 0.31710  0.51310  0.08840  Biso   1.000  N
  N2       1.0000 0.24820  0.59470  0.25790  Biso   1.000  N
  N3       1.0000 0.29630  0.65470  0.35720  Biso   1.000  N
  N4       1.0000 0.33610  0.70460  0.39150  Biso   1.000  N
  H1       1.0000 0.37810  0.69370  0.38560  Biso   1.000  H
  H2       1.0000 0.32680  0.70950  0.44760  Biso   1.000  H
  N5       1.0000 0.30360  0.69060  0.21140  Biso   1.000  N
  H3       1.0000 0.32240  0.72680  0.22540  Biso   1.000  H
  N6       1.0000 0.29170  0.67370  0.12380  Biso   1.000  N
  H4       1.0000 0.33010  0.66680  0.09650  Biso   1.000  H
  H5       1.0000 0.27110  0.70700  0.09700  Biso   1.000  H
  N7       1.0000 0.16170  0.48280  0.13780  Biso   1.000  N
  N8       1.0000 0.20160  0.59440  0.96820  Biso   1.000  N
  N9       1.0000 0.15320  0.65780  0.87420  Biso   1.000  N
  N10      1.0000 0.11340  0.71020  0.84630  Biso   1.000  N
  H6       1.0000 0.08740  0.69600  0.80390  Biso   1.000  H
  H7       1.0000 0.13840  0.74270  0.82660  Biso   1.000  H
  N11      1.0000 0.11350  0.65950  0.01870  Biso   1.000  N
  H8       1.0000 0.08240  0.68630  0.00640  Biso   1.000  H
  N12      1.0000 0.12360  0.63670  0.10470  Biso   1.000  N
  H9       1.0000 0.08980  0.61110  0.12070  Biso   1.000  H
  H10      1.0000 0.12540  0.67100  0.14130  Biso   1.000  H
  C1       1.0000 0.28420  0.64760  0.27110  Biso   1.000  C
  C2       1.0000 0.35260  0.48270  0.14590  Biso   1.000  C
  H11      1.0000 0.34350  0.48110  0.20510  Biso   1.000  H
  C3       1.0000 0.15430  0.63760  0.95790  Biso   1.000  C
  C4       1.0000 0.20270  0.62630  0.83380  Biso   1.000  C
  H12      1.0000 0.21350  0.63120  0.77550  Biso   1.000  H
  Cd2      1.0000 0.27561  0.42502  0.61403  Biso   1.000  Cd
  N13      1.0000 0.18290  0.48690  0.58840  Biso   1.000  N
  N14      1.0000 0.25180  0.40530  0.75790  Biso   1.000  N
  N15      1.0000 0.20370  0.34530  0.85720  Biso   1.000  N
  N16      1.0000 0.16390  0.29540  0.89150  Biso   1.000  N
  H13      1.0000 0.12190  0.30630  0.88560  Biso   1.000  H
  H14      1.0000 0.17320  0.29050  0.94760  Biso   1.000  H
  N17      1.0000 0.19640  0.30940  0.71140  Biso   1.000  N
  H15      1.0000 0.17760  0.27320  0.72540  Biso   1.000  H
  N18      1.0000 0.20830  0.32630  0.62380  Biso   1.000  N
  H16      1.0000 0.16990  0.33320  0.59650  Biso   1.000  H
  H17      1.0000 0.22890  0.29300  0.59700  Biso   1.000  H
  N19      1.0000 0.33830  0.51720  0.63780  Biso   1.000  N
  N20      1.0000 0.29840  0.40560  0.46820  Biso   1.000  N
  N21      1.0000 0.34680  0.34220  0.37420  Biso   1.000  N
  N22      1.0000 0.38660  0.28980  0.34630  Biso   1.000  N
  H18      1.0000 0.41260  0.30400  0.30390  Biso   1.000  H
  H19      1.0000 0.36160  0.25730  0.32660  Biso   1.000  H
  N23      1.0000 0.38650  0.34050  0.51870  Biso   1.000  N
  H20      1.0000 0.41760  0.31370  0.50640  Biso   1.000  H
  N24      1.0000 0.37640  0.36330  0.60470  Biso   1.000  N
  H21      1.0000 0.41020  0.38890  0.62070  Biso   1.000  H
  H22      1.0000 0.37460  0.32900  0.64130  Biso   1.000  H
  C5       1.0000 0.21580  0.35240  0.77110  Biso   1.000  C
  C6       1.0000 0.14740  0.51730  0.64590  Biso   1.000  C
  H23      1.0000 0.15650  0.51890  0.70510  Biso   1.000  H
  C7       1.0000 0.34570  0.36240  0.45790  Biso   1.000  C
  C8       1.0000 0.29730  0.37370  0.33380  Biso   1.000  C
  H24      1.0000 0.28650  0.36880  0.27550  Biso   1.000  H
  Cd3      1.0000 0.17502  0.47439  0.36403  Biso   1.000  Cd
  N25      1.0000 0.23690  0.56710  0.33840  Biso   1.000  N
  N26      1.0000 0.15530  0.49820  0.50790  Biso   1.000  N
  N27      1.0000 0.09530  0.54630  0.60720  Biso   1.000  N
  N28      1.0000 0.04540  0.58610  0.64150  Biso   1.000  N
  H25      1.0000 0.05630  0.62810  0.63560  Biso   1.000  H
  H26      1.0000 0.04050  0.57680  0.69760  Biso   1.000  H
  N29      1.0000 0.05940  0.55360  0.46140  Biso   1.000  N
  H27      1.0000 0.02320  0.57240  0.47540  Biso   1.000  H
  N30      1.0000 0.07630  0.54170  0.37380  Biso   1.000  N
  H28      1.0000 0.08320  0.58010  0.34650  Biso   1.000  H
  H29      1.0000 0.04300  0.52110  0.34700  Biso   1.000  H
  N31      1.0000 0.26720  0.41170  0.38780  Biso   1.000  N
  N32      1.0000 0.15560  0.45160  0.21820  Biso   1.000  N
  N33      1.0000 0.09220  0.40320  0.12420  Biso   1.000  N
  N34      1.0000 0.03980  0.36340  0.09630  Biso   1.000  N
  H30      1.0000 0.05400  0.33740  0.05390  Biso   1.000  H
  H31      1.0000 0.00730  0.38840  0.07660  Biso   1.000  H
  N35      1.0000 0.09050  0.36350  0.26870  Biso   1.000  N
  H32      1.0000 0.06370  0.33240  0.25640  Biso   1.000  H
  N36      1.0000 0.11330  0.37360  0.35470  Biso   1.000  N
  H33      1.0000 0.13890  0.33980  0.37070  Biso   1.000  H
  H34      1.0000 0.07900  0.37540  0.39130  Biso   1.000  H
  C9       1.0000 0.10240  0.53420  0.52110  Biso   1.000  C
  C10      1.0000 0.26730  0.60260  0.39590  Biso   1.000  C
  H35      1.0000 0.26890  0.59350  0.45510  Biso   1.000  H
  C11      1.0000 0.11240  0.40430  0.20790  Biso   1.000  C
  C12      1.0000 0.12370  0.45270  0.08380  Biso   1.000  C
  H36      1.0000 0.11880  0.46350  0.02550  Biso   1.000  H
  Cd4      1.0000 0.32498  0.52561  0.86403  Biso   1.000  Cd
  N37      1.0000 0.26310  0.43290  0.83840  Biso   1.000  N
  N38      1.0000 0.34470  0.50180  0.00790  Biso   1.000  N
  N39      1.0000 0.40470  0.45370  0.10720  Biso   1.000  N
  N40      1.0000 0.45460  0.41390  0.14150  Biso   1.000  N
  H37      1.0000 0.44370  0.37190  0.13560  Biso   1.000  H
  H38      1.0000 0.45950  0.42320  0.19760  Biso   1.000  H
  N41      1.0000 0.44060  0.44640  0.96140  Biso   1.000  N
  H39      1.0000 0.47680  0.42760  0.97540  Biso   1.000  H
  N42      1.0000 0.42370  0.45830  0.87380  Biso   1.000  N
  H40      1.0000 0.41680  0.41990  0.84650  Biso   1.000  H
  H41      1.0000 0.45700  0.47890  0.84700  Biso   1.000  H
  N43      1.0000 0.23280  0.58830  0.88780  Biso   1.000  N
  N44      1.0000 0.34440  0.54840  0.71820  Biso   1.000  N
  N45      1.0000 0.40780  0.59680  0.62420  Biso   1.000  N
  N46      1.0000 0.46020  0.63660  0.59630  Biso   1.000  N
  H42      1.0000 0.44600  0.66260  0.55390  Biso   1.000  H
  H43      1.0000 0.49270  0.61160  0.57660  Biso   1.000  H
  N47      1.0000 0.40950  0.63650  0.76870  Biso   1.000  N
  H44      1.0000 0.43630  0.66760  0.75640  Biso   1.000  H
  N48      1.0000 0.38670  0.62640  0.85470  Biso   1.000  N
  H45      1.0000 0.36110  0.66020  0.87070  Biso   1.000  H
  H46      1.0000 0.42100  0.62460  0.89130  Biso   1.000  H
  C13      1.0000 0.39760  0.46580  0.02110  Biso   1.000  C
  C14      1.0000 0.23270  0.39740  0.89590  Biso   1.000  C
  H47      1.0000 0.23110  0.40650  0.95510  Biso   1.000  H
  C15      1.0000 0.38760  0.59570  0.70790  Biso   1.000  C
  C16      1.0000 0.37630  0.54730  0.58380  Biso   1.000  C
  H48      1.0000 0.38120  0.53650  0.52550  Biso   1.000  H
  Cd5      1.0000 0.72439  0.07498  0.61403  Biso   1.000  Cd
  N49      1.0000 0.81710  0.01310  0.58840  Biso   1.000  N
  N50      1.0000 0.74820  0.09470  0.75790  Biso   1.000  N
  N51      1.0000 0.79630  0.15470  0.85720  Biso   1.000  N
  N52      1.0000 0.83610  0.20460  0.89150  Biso   1.000  N
  H49      1.0000 0.87810  0.19370  0.88560  Biso   1.000  H
  H50      1.0000 0.82680  0.20950  0.94760  Biso   1.000  H
  N53      1.0000 0.80360  0.19060  0.71140  Biso   1.000  N
  H51      1.0000 0.82240  0.22680  0.72540  Biso   1.000  H
  N54      1.0000 0.79170  0.17370  0.62380  Biso   1.000  N
  H52      1.0000 0.83010  0.16680  0.59650  Biso   1.000  H
  H53      1.0000 0.77110  0.20700  0.59700  Biso   1.000  H
  N55      1.0000 0.66170  0.98280  0.63780  Biso   1.000  N
  N56      1.0000 0.70160  0.09440  0.46820  Biso   1.000  N
  N57      1.0000 0.65320  0.15780  0.37420  Biso   1.000  N
  N58      1.0000 0.61340  0.21020  0.34630  Biso   1.000  N
  H54      1.0000 0.58740  0.19600  0.30390  Biso   1.000  H
  H55      1.0000 0.63840  0.24270  0.32660  Biso   1.000  H
  N59      1.0000 0.61350  0.15950  0.51870  Biso   1.000  N
  H56      1.0000 0.58240  0.18630  0.50640  Biso   1.000  H
  N60      1.0000 0.62360  0.13670  0.60470  Biso   1.000  N
  H57      1.0000 0.58980  0.11110  0.62070  Biso   1.000  H
  H58      1.0000 0.62540  0.17100  0.64130  Biso   1.000  H
  C17      1.0000 0.78420  0.14760  0.77110  Biso   1.000  C
  C18      1.0000 0.85260  0.98270  0.64590  Biso   1.000  C
  H59      1.0000 0.84350  0.98110  0.70510  Biso   1.000  H
  C19      1.0000 0.65430  0.13760  0.45790  Biso   1.000  C
  C20      1.0000 0.70270  0.12630  0.33380  Biso   1.000  C
  H60      1.0000 0.71350  0.13120  0.27550  Biso   1.000  H
  Cd6      1.0000 0.77561  0.92502  0.11403  Biso   1.000  Cd
  N61      1.0000 0.68290  0.98690  0.08840  Biso   1.000  N
  N62      1.0000 0.75180  0.90530  0.25790  Biso   1.000  N
  N63      1.0000 0.70370  0.84530  0.35720  Biso   1.000  N
  N64      1.0000 0.66390  0.79540  0.39150  Biso   1.000  N
  H61      1.0000 0.62190  0.80630  0.38560  Biso   1.000  H
  H62      1.0000 0.67320  0.79050  0.44760  Biso   1.000  H
  N65      1.0000 0.69640  0.80940  0.21140  Biso   1.000  N
  H63      1.0000 0.67760  0.77320  0.22540  Biso   1.000  H
  N66      1.0000 0.70830  0.82630  0.12380  Biso   1.000  N
  H64      1.0000 0.66990  0.83320  0.09650  Biso   1.000  H
  H65      1.0000 0.72890  0.79300  0.09700  Biso   1.000  H
  N67      1.0000 0.83830  0.01720  0.13780  Biso   1.000  N
  N68      1.0000 0.79840  0.90560  0.96820  Biso   1.000  N
  N69      1.0000 0.84680  0.84220  0.87420  Biso   1.000  N
  N70      1.0000 0.88660  0.78980  0.84630  Biso   1.000  N
  H66      1.0000 0.91260  0.80400  0.80390  Biso   1.000  H
  H67      1.0000 0.86160  0.75730  0.82660  Biso   1.000  H
  N71      1.0000 0.88650  0.84050  0.01870  Biso   1.000  N
  H68      1.0000 0.91760  0.81370  0.00640  Biso   1.000  H
  N72      1.0000 0.87640  0.86330  0.10470  Biso   1.000  N
  H69      1.0000 0.91020  0.88890  0.12070  Biso   1.000  H
  H70      1.0000 0.87460  0.82900  0.14130  Biso   1.000  H
  C21      1.0000 0.71580  0.85240  0.27110  Biso   1.000  C
  C22      1.0000 0.64740  0.01730  0.14590  Biso   1.000  C
  H71      1.0000 0.65650  0.01890  0.20510  Biso   1.000  H
  C23      1.0000 0.84570  0.86240  0.95790  Biso   1.000  C
  C24      1.0000 0.79730  0.87370  0.83380  Biso   1.000  C
  H72      1.0000 0.78650  0.86880  0.77550  Biso   1.000  H
  Cd7      1.0000 0.67502  0.97439  0.86403  Biso   1.000  Cd
  N73      1.0000 0.73690  0.06710  0.83840  Biso   1.000  N
  N74      1.0000 0.65530  0.99820  0.00790  Biso   1.000  N
  N75      1.0000 0.59530  0.04630  0.10720  Biso   1.000  N
  N76      1.0000 0.54540  0.08610  0.14150  Biso   1.000  N
  H73      1.0000 0.55630  0.12810  0.13560  Biso   1.000  H
  H74      1.0000 0.54050  0.07680  0.19760  Biso   1.000  H
  N77      1.0000 0.55940  0.05360  0.96140  Biso   1.000  N
  H75      1.0000 0.52320  0.07240  0.97540  Biso   1.000  H
  N78      1.0000 0.57630  0.04170  0.87380  Biso   1.000  N
  H76      1.0000 0.58320  0.08010  0.84650  Biso   1.000  H
  H77      1.0000 0.54300  0.02110  0.84700  Biso   1.000  H
  N79      1.0000 0.76720  0.91170  0.88780  Biso   1.000  N
  N80      1.0000 0.65560  0.95160  0.71820  Biso   1.000  N
  N81      1.0000 0.59220  0.90320  0.62420  Biso   1.000  N
  N82      1.0000 0.53980  0.86340  0.59630  Biso   1.000  N
  H78      1.0000 0.55400  0.83740  0.55390  Biso   1.000  H
  H79      1.0000 0.50730  0.88840  0.57660  Biso   1.000  H
  N83      1.0000 0.59050  0.86350  0.76870  Biso   1.000  N
  H80      1.0000 0.56370  0.83240  0.75640  Biso   1.000  H
  N84      1.0000 0.61330  0.87360  0.85470  Biso   1.000  N
  H81      1.0000 0.63890  0.83980  0.87070  Biso   1.000  H
  H82      1.0000 0.57900  0.87540  0.89130  Biso   1.000  H
  C25      1.0000 0.60240  0.03420  0.02110  Biso   1.000  C
  C26      1.0000 0.76730  0.10260  0.89590  Biso   1.000  C
  H83      1.0000 0.76890  0.09350  0.95510  Biso   1.000  H
  C27      1.0000 0.61240  0.90430  0.70790  Biso   1.000  C
  C28      1.0000 0.62370  0.95270  0.58380  Biso   1.000  C
  H84      1.0000 0.61880  0.96350  0.52550  Biso   1.000  H
  Cd8      1.0000 0.82498  0.02561  0.36403  Biso   1.000  Cd
  N85      1.0000 0.76310  0.93290  0.33840  Biso   1.000  N
  N86      1.0000 0.84470  0.00180  0.50790  Biso   1.000  N
  N87      1.0000 0.90470  0.95370  0.60720  Biso   1.000  N
  N88      1.0000 0.95460  0.91390  0.64150  Biso   1.000  N
  H85      1.0000 0.94370  0.87190  0.63560  Biso   1.000  H
  H86      1.0000 0.95950  0.92320  0.69760  Biso   1.000  H
  N89      1.0000 0.94060  0.94640  0.46140  Biso   1.000  N
  H87      1.0000 0.97680  0.92760  0.47540  Biso   1.000  H
  N90      1.0000 0.92370  0.95830  0.37380  Biso   1.000  N
  H88      1.0000 0.91680  0.91990  0.34650  Biso   1.000  H
  H89      1.0000 0.95700  0.97890  0.34700  Biso   1.000  H
  N91      1.0000 0.73280  0.08830  0.38780  Biso   1.000  N
  N92      1.0000 0.84440  0.04840  0.21820  Biso   1.000  N
  N93      1.0000 0.90780  0.09680  0.12420  Biso   1.000  N
  N94      1.0000 0.96020  0.13660  0.09630  Biso   1.000  N
  H90      1.0000 0.94600  0.16260  0.05390  Biso   1.000  H
  H91      1.0000 0.99270  0.11160  0.07660  Biso   1.000  H
  N95      1.0000 0.90950  0.13650  0.26870  Biso   1.000  N
  H92      1.0000 0.93630  0.16760  0.25640  Biso   1.000  H
  N96      1.0000 0.88670  0.12640  0.35470  Biso   1.000  N
  H93      1.0000 0.86110  0.16020  0.37070  Biso   1.000  H
  H94      1.0000 0.92100  0.12460  0.39130  Biso   1.000  H
  C29      1.0000 0.89760  0.96580  0.52110  Biso   1.000  C
  C30      1.0000 0.73270  0.89740  0.39590  Biso   1.000  C
  H95      1.0000 0.73110  0.90650  0.45510  Biso   1.000  H
  C31      1.0000 0.88760  0.09570  0.20790  Biso   1.000  C
  C32      1.0000 0.87630  0.04730  0.08380  Biso   1.000  C
  H96      1.0000 0.88120  0.03650  0.02550  Biso   1.000  H
  Cd9      1.0000 0.77561  0.42502  0.88597  Biso   1.000  Cd
  N97      1.0000 0.68290  0.48690  0.91160  Biso   1.000  N
  N98      1.0000 0.75180  0.40530  0.74210  Biso   1.000  N
  N99      1.0000 0.70370  0.34530  0.64280  Biso   1.000  N
  N100     1.0000 0.66390  0.29540  0.60850  Biso   1.000  N
  H97      1.0000 0.62190  0.30630  0.61440  Biso   1.000  H
  H98      1.0000 0.67320  0.29050  0.55240  Biso   1.000  H
  N101     1.0000 0.69640  0.30940  0.78860  Biso   1.000  N
  H99      1.0000 0.67760  0.27320  0.77460  Biso   1.000  H
  N102     1.0000 0.70830  0.32630  0.87620  Biso   1.000  N
  H100     1.0000 0.66990  0.33320  0.90350  Biso   1.000  H
  H101     1.0000 0.72890  0.29300  0.90300  Biso   1.000  H
  N103     1.0000 0.83830  0.51720  0.86220  Biso   1.000  N
  N104     1.0000 0.79840  0.40560  0.03180  Biso   1.000  N
  N105     1.0000 0.84680  0.34220  0.12580  Biso   1.000  N
  N106     1.0000 0.88660  0.28980  0.15370  Biso   1.000  N
  H102     1.0000 0.91260  0.30400  0.19610  Biso   1.000  H
  H103     1.0000 0.86160  0.25730  0.17340  Biso   1.000  H
  N107     1.0000 0.88650  0.34050  0.98130  Biso   1.000  N
  H104     1.0000 0.91760  0.31370  0.99360  Biso   1.000  H
  N108     1.0000 0.87640  0.36330  0.89530  Biso   1.000  N
  H105     1.0000 0.91020  0.38890  0.87930  Biso   1.000  H
  H106     1.0000 0.87460  0.32900  0.85870  Biso   1.000  H
  C33      1.0000 0.71580  0.35240  0.72890  Biso   1.000  C
  C34      1.0000 0.64740  0.51730  0.85410  Biso   1.000  C
  H107     1.0000 0.65650  0.51890  0.79490  Biso   1.000  H
  C35      1.0000 0.84570  0.36240  0.04210  Biso   1.000  C
  C36      1.0000 0.79730  0.37370  0.16620  Biso   1.000  C
  H108     1.0000 0.78650  0.36880  0.22450  Biso   1.000  H
  Cd10     1.0000 0.72439  0.57498  0.38597  Biso   1.000  Cd
  N109     1.0000 0.81710  0.51310  0.41160  Biso   1.000  N
  N110     1.0000 0.74820  0.59470  0.24210  Biso   1.000  N
  N111     1.0000 0.79630  0.65470  0.14280  Biso   1.000  N
  N112     1.0000 0.83610  0.70460  0.10850  Biso   1.000  N
  H109     1.0000 0.87810  0.69370  0.11440  Biso   1.000  H
  H110     1.0000 0.82680  0.70950  0.05240  Biso   1.000  H
  N113     1.0000 0.80360  0.69060  0.28860  Biso   1.000  N
  H111     1.0000 0.82240  0.72680  0.27460  Biso   1.000  H
  N114     1.0000 0.79170  0.67370  0.37620  Biso   1.000  N
  H112     1.0000 0.83010  0.66680  0.40350  Biso   1.000  H
  H113     1.0000 0.77110  0.70700  0.40300  Biso   1.000  H
  N115     1.0000 0.66170  0.48280  0.36220  Biso   1.000  N
  N116     1.0000 0.70160  0.59440  0.53180  Biso   1.000  N
  N117     1.0000 0.65320  0.65780  0.62580  Biso   1.000  N
  N118     1.0000 0.61340  0.71020  0.65370  Biso   1.000  N
  H114     1.0000 0.58740  0.69600  0.69610  Biso   1.000  H
  H115     1.0000 0.63840  0.74270  0.67340  Biso   1.000  H
  N119     1.0000 0.61350  0.65950  0.48130  Biso   1.000  N
  H116     1.0000 0.58240  0.68630  0.49360  Biso   1.000  H
  N120     1.0000 0.62360  0.63670  0.39530  Biso   1.000  N
  H117     1.0000 0.58980  0.61110  0.37930  Biso   1.000  H
  H118     1.0000 0.62540  0.67100  0.35870  Biso   1.000  H
  C37      1.0000 0.78420  0.64760  0.22890  Biso   1.000  C
  C38      1.0000 0.85260  0.48270  0.35410  Biso   1.000  C
  H119     1.0000 0.84350  0.48110  0.29490  Biso   1.000  H
  C39      1.0000 0.65430  0.63760  0.54210  Biso   1.000  C
  C40      1.0000 0.70270  0.62630  0.66620  Biso   1.000  C
  H120     1.0000 0.71350  0.63120  0.72450  Biso   1.000  H
  Cd11     1.0000 0.82498  0.52561  0.63597  Biso   1.000  Cd
  N121     1.0000 0.76310  0.43290  0.66160  Biso   1.000  N
  N122     1.0000 0.84470  0.50180  0.49210  Biso   1.000  N
  N123     1.0000 0.90470  0.45370  0.39280  Biso   1.000  N
  N124     1.0000 0.95460  0.41390  0.35850  Biso   1.000  N
  H121     1.0000 0.94370  0.37190  0.36440  Biso   1.000  H
  H122     1.0000 0.95950  0.42320  0.30240  Biso   1.000  H
  N125     1.0000 0.94060  0.44640  0.53860  Biso   1.000  N
  H123     1.0000 0.97680  0.42760  0.52460  Biso   1.000  H
  N126     1.0000 0.92370  0.45830  0.62620  Biso   1.000  N
  H124     1.0000 0.91680  0.41990  0.65350  Biso   1.000  H
  H125     1.0000 0.95700  0.47890  0.65300  Biso   1.000  H
  N127     1.0000 0.73280  0.58830  0.61220  Biso   1.000  N
  N128     1.0000 0.84440  0.54840  0.78180  Biso   1.000  N
  N129     1.0000 0.90780  0.59680  0.87580  Biso   1.000  N
  N130     1.0000 0.96020  0.63660  0.90370  Biso   1.000  N
  H126     1.0000 0.94600  0.66260  0.94610  Biso   1.000  H
  H127     1.0000 0.99270  0.61160  0.92340  Biso   1.000  H
  N131     1.0000 0.90950  0.63650  0.73130  Biso   1.000  N
  H128     1.0000 0.93630  0.66760  0.74360  Biso   1.000  H
  N132     1.0000 0.88670  0.62640  0.64530  Biso   1.000  N
  H129     1.0000 0.86110  0.66020  0.62930  Biso   1.000  H
  H130     1.0000 0.92100  0.62460  0.60870  Biso   1.000  H
  C41      1.0000 0.89760  0.46580  0.47890  Biso   1.000  C
  C42      1.0000 0.73270  0.39740  0.60410  Biso   1.000  C
  H131     1.0000 0.73110  0.40650  0.54490  Biso   1.000  H
  C43      1.0000 0.88760  0.59570  0.79210  Biso   1.000  C
  C44      1.0000 0.87630  0.54730  0.91620  Biso   1.000  C
  H132     1.0000 0.88120  0.53650  0.97450  Biso   1.000  H
  Cd12     1.0000 0.67502  0.47439  0.13597  Biso   1.000  Cd
  N133     1.0000 0.73690  0.56710  0.16160  Biso   1.000  N
  N134     1.0000 0.65530  0.49820  0.99210  Biso   1.000  N
  N135     1.0000 0.59530  0.54630  0.89280  Biso   1.000  N
  N136     1.0000 0.54540  0.58610  0.85850  Biso   1.000  N
  H133     1.0000 0.55630  0.62810  0.86440  Biso   1.000  H
  H134     1.0000 0.54050  0.57680  0.80240  Biso   1.000  H
  N137     1.0000 0.55940  0.55360  0.03860  Biso   1.000  N
  H135     1.0000 0.52320  0.57240  0.02460  Biso   1.000  H
  N138     1.0000 0.57630  0.54170  0.12620  Biso   1.000  N
  H136     1.0000 0.58320  0.58010  0.15350  Biso   1.000  H
  H137     1.0000 0.54300  0.52110  0.15300  Biso   1.000  H
  N139     1.0000 0.76720  0.41170  0.11220  Biso   1.000  N
  N140     1.0000 0.65560  0.45160  0.28180  Biso   1.000  N
  N141     1.0000 0.59220  0.40320  0.37580  Biso   1.000  N
  N142     1.0000 0.53980  0.36340  0.40370  Biso   1.000  N
  H138     1.0000 0.55400  0.33740  0.44610  Biso   1.000  H
  H139     1.0000 0.50730  0.38840  0.42340  Biso   1.000  H
  N143     1.0000 0.59050  0.36350  0.23130  Biso   1.000  N
  H140     1.0000 0.56370  0.33240  0.24360  Biso   1.000  H
  N144     1.0000 0.61330  0.37360  0.14530  Biso   1.000  N
  H141     1.0000 0.63890  0.33980  0.12930  Biso   1.000  H
  H142     1.0000 0.57900  0.37540  0.10870  Biso   1.000  H
  C45      1.0000 0.60240  0.53420  0.97890  Biso   1.000  C
  C46      1.0000 0.76730  0.60260  0.10410  Biso   1.000  C
  H143     1.0000 0.76890  0.59350  0.04490  Biso   1.000  H
  C47      1.0000 0.61240  0.40430  0.29210  Biso   1.000  C
  C48      1.0000 0.62370  0.45270  0.41620  Biso   1.000  C
  H144     1.0000 0.61880  0.46350  0.47450  Biso   1.000  H
  Cd13     1.0000 0.27561  0.92502  0.38597  Biso   1.000  Cd
  N145     1.0000 0.18290  0.98690  0.41160  Biso   1.000  N
  N146     1.0000 0.25180  0.90530  0.24210  Biso   1.000  N
  N147     1.0000 0.20370  0.84530  0.14280  Biso   1.000  N
  N148     1.0000 0.16390  0.79540  0.10850  Biso   1.000  N
  H145     1.0000 0.12190  0.80630  0.11440  Biso   1.000  H
  H146     1.0000 0.17320  0.79050  0.05240  Biso   1.000  H
  N149     1.0000 0.19640  0.80940  0.28860  Biso   1.000  N
  H147     1.0000 0.17760  0.77320  0.27460  Biso   1.000  H
  N150     1.0000 0.20830  0.82630  0.37620  Biso   1.000  N
  H148     1.0000 0.16990  0.83320  0.40350  Biso   1.000  H
  H149     1.0000 0.22890  0.79300  0.40300  Biso   1.000  H
  N151     1.0000 0.33830  0.01720  0.36220  Biso   1.000  N
  N152     1.0000 0.29840  0.90560  0.53180  Biso   1.000  N
  N153     1.0000 0.34680  0.84220  0.62580  Biso   1.000  N
  N154     1.0000 0.38660  0.78980  0.65370  Biso   1.000  N
  H150     1.0000 0.41260  0.80400  0.69610  Biso   1.000  H
  H151     1.0000 0.36160  0.75730  0.67340  Biso   1.000  H
  N155     1.0000 0.38650  0.84050  0.48130  Biso   1.000  N
  H152     1.0000 0.41760  0.81370  0.49360  Biso   1.000  H
  N156     1.0000 0.37640  0.86330  0.39530  Biso   1.000  N
  H153     1.0000 0.41020  0.88890  0.37930  Biso   1.000  H
  H154     1.0000 0.37460  0.82900  0.35870  Biso   1.000  H
  C49      1.0000 0.21580  0.85240  0.22890  Biso   1.000  C
  C50      1.0000 0.14740  0.01730  0.35410  Biso   1.000  C
  H155     1.0000 0.15650  0.01890  0.29490  Biso   1.000  H
  C51      1.0000 0.34570  0.86240  0.54210  Biso   1.000  C
  C52      1.0000 0.29730  0.87370  0.66620  Biso   1.000  C
  H156     1.0000 0.28650  0.86880  0.72450  Biso   1.000  H
  Cd14     1.0000 0.22439  0.07498  0.88597  Biso   1.000  Cd
  N157     1.0000 0.31710  0.01310  0.91160  Biso   1.000  N
  N158     1.0000 0.24820  0.09470  0.74210  Biso   1.000  N
  N159     1.0000 0.29630  0.15470  0.64280  Biso   1.000  N
  N160     1.0000 0.33610  0.20460  0.60850  Biso   1.000  N
  H157     1.0000 0.37810  0.19370  0.61440  Biso   1.000  H
  H158     1.0000 0.32680  0.20950  0.55240  Biso   1.000  H
  N161     1.0000 0.30360  0.19060  0.78860  Biso   1.000  N
  H159     1.0000 0.32240  0.22680  0.77460  Biso   1.000  H
  N162     1.0000 0.29170  0.17370  0.87620  Biso   1.000  N
  H160     1.0000 0.33010  0.16680  0.90350  Biso   1.000  H
  H161     1.0000 0.27110  0.20700  0.90300  Biso   1.000  H
  N163     1.0000 0.16170  0.98280  0.86220  Biso   1.000  N
  N164     1.0000 0.20160  0.09440  0.03180  Biso   1.000  N
  N165     1.0000 0.15320  0.15780  0.12580  Biso   1.000  N
  N166     1.0000 0.11340  0.21020  0.15370  Biso   1.000  N
  H162     1.0000 0.08740  0.19600  0.19610  Biso   1.000  H
  H163     1.0000 0.13840  0.24270  0.17340  Biso   1.000  H
  N167     1.0000 0.11350  0.15950  0.98130  Biso   1.000  N
  H164     1.0000 0.08240  0.18630  0.99360  Biso   1.000  H
  N168     1.0000 0.12360  0.13670  0.89530  Biso   1.000  N
  H165     1.0000 0.08980  0.11110  0.87930  Biso   1.000  H
  H166     1.0000 0.12540  0.17100  0.85870  Biso   1.000  H
  C53      1.0000 0.28420  0.14760  0.72890  Biso   1.000  C
  C54      1.0000 0.35260  0.98270  0.85410  Biso   1.000  C
  H167     1.0000 0.34350  0.98110  0.79490  Biso   1.000  H
  C55      1.0000 0.15430  0.13760  0.04210  Biso   1.000  C
  C56      1.0000 0.20270  0.12630  0.16620  Biso   1.000  C
  H168     1.0000 0.21350  0.13120  0.22450  Biso   1.000  H
  Cd15     1.0000 0.32498  0.02561  0.13597  Biso   1.000  Cd
  N169     1.0000 0.26310  0.93290  0.16160  Biso   1.000  N
  N170     1.0000 0.34470  0.00180  0.99210  Biso   1.000  N
  N171     1.0000 0.40470  0.95370  0.89280  Biso   1.000  N
  N172     1.0000 0.45460  0.91390  0.85850  Biso   1.000  N
  H169     1.0000 0.44370  0.87190  0.86440  Biso   1.000  H
  H170     1.0000 0.45950  0.92320  0.80240  Biso   1.000  H
  N173     1.0000 0.44060  0.94640  0.03860  Biso   1.000  N
  H171     1.0000 0.47680  0.92760  0.02460  Biso   1.000  H
  N174     1.0000 0.42370  0.95830  0.12620  Biso   1.000  N
  H172     1.0000 0.41680  0.91990  0.15350  Biso   1.000  H
  H173     1.0000 0.45700  0.97890  0.15300  Biso   1.000  H
  N175     1.0000 0.23280  0.08830  0.11220  Biso   1.000  N
  N176     1.0000 0.34440  0.04840  0.28180  Biso   1.000  N
  N177     1.0000 0.40780  0.09680  0.37580  Biso   1.000  N
  N178     1.0000 0.46020  0.13660  0.40370  Biso   1.000  N
  H174     1.0000 0.44600  0.16260  0.44610  Biso   1.000  H
  H175     1.0000 0.49270  0.11160  0.42340  Biso   1.000  H
  N179     1.0000 0.40950  0.13650  0.23130  Biso   1.000  N
  H176     1.0000 0.43630  0.16760  0.24360  Biso   1.000  H
  N180     1.0000 0.38670  0.12640  0.14530  Biso   1.000  N
  H177     1.0000 0.36110  0.16020  0.12930  Biso   1.000  H
  H178     1.0000 0.42100  0.12460  0.10870  Biso   1.000  H
  C57      1.0000 0.39760  0.96580  0.97890  Biso   1.000  C
  C58      1.0000 0.23270  0.89740  0.10410  Biso   1.000  C
  H179     1.0000 0.23110  0.90650  0.04490  Biso   1.000  H
  C59      1.0000 0.38760  0.09570  0.29210  Biso   1.000  C
  C60      1.0000 0.37630  0.04730  0.41620  Biso   1.000  C
  H180     1.0000 0.38120  0.03650  0.47450  Biso   1.000  H
  Cd16     1.0000 0.17502  0.97439  0.63597  Biso   1.000  Cd
  N181     1.0000 0.23690  0.06710  0.66160  Biso   1.000  N
  N182     1.0000 0.15530  0.99820  0.49210  Biso   1.000  N
  N183     1.0000 0.09530  0.04630  0.39280  Biso   1.000  N
  N184     1.0000 0.04540  0.08610  0.35850  Biso   1.000  N
  H181     1.0000 0.05630  0.12810  0.36440  Biso   1.000  H
  H182     1.0000 0.04050  0.07680  0.30240  Biso   1.000  H
  N185     1.0000 0.05940  0.05360  0.53860  Biso   1.000  N
  H183     1.0000 0.02320  0.07240  0.52460  Biso   1.000  H
  N186     1.0000 0.07630  0.04170  0.62620  Biso   1.000  N
  H184     1.0000 0.08320  0.08010  0.65350  Biso   1.000  H
  H185     1.0000 0.04300  0.02110  0.65300  Biso   1.000  H
  N187     1.0000 0.26720  0.91170  0.61220  Biso   1.000  N
  N188     1.0000 0.15560  0.95160  0.78180  Biso   1.000  N
  N189     1.0000 0.09220  0.90320  0.87580  Biso   1.000  N
  N190     1.0000 0.03980  0.86340  0.90370  Biso   1.000  N
  H186     1.0000 0.05400  0.83740  0.94610  Biso   1.000  H
  H187     1.0000 0.00730  0.88840  0.92340  Biso   1.000  H
  N191     1.0000 0.09050  0.86350  0.73130  Biso   1.000  N
  H188     1.0000 0.06370  0.83240  0.74360  Biso   1.000  H
  N192     1.0000 0.11330  0.87360  0.64530  Biso   1.000  N
  H189     1.0000 0.13890  0.83980  0.62930  Biso   1.000  H
  H190     1.0000 0.07900  0.87540  0.60870  Biso   1.000  H
  C61      1.0000 0.10240  0.03420  0.47890  Biso   1.000  C
  C62      1.0000 0.26730  0.10260  0.60410  Biso   1.000  C
  H191     1.0000 0.26890  0.09350  0.54490  Biso   1.000  H
  C63      1.0000 0.11240  0.90430  0.79210  Biso   1.000  C
  C64      1.0000 0.12370  0.95270  0.91620  Biso   1.000  C
  H192     1.0000 0.11880  0.96350  0.97450  Biso   1.000  H
