data_image0
_cell_length_a       13.6287
_cell_length_b       13.9657
_cell_length_c       26.6535
_cell_angle_alpha    85.319
_cell_angle_beta     89.286
_cell_angle_gamma    86.172

_symmetry_space_group_name_H-M    "P 1"
_symmetry_int_tables_number       1

loop_
  _symmetry_equiv_pos_as_xyz
  'x, y, z'

loop_
  _atom_site_label
  _atom_site_occupancy
  _atom_site_fract_x
  _atom_site_fract_y
  _atom_site_fract_z
  _atom_site_thermal_displace_type
  _atom_site_B_iso_or_equiv
  _atom_site_type_symbol
  Zn1      1.0000 0.49459  0.89776  0.99980  Biso   1.000  Zn
  Zn2      1.0000 0.36202  0.45986  0.82668  Biso   1.000  Zn
  Zn3      1.0000 0.25020  0.59770  0.54220  Biso   1.000  Zn
  O1       1.0000 0.63860  0.91030  0.98631  Biso   1.000  O
  O2       1.0000 0.64990  0.07030  0.99055  Biso   1.000  O
  O3       1.0000 0.47170  0.93090  0.92554  Biso   1.000  O
  O4       1.0000 0.48890  0.08860  0.92558  Biso   1.000  O
  O5       1.0000 0.21430  0.37910  0.80750  Biso   1.000  O
  O6       1.0000 0.33830  0.32680  0.85580  Biso   1.000  O
  O7       1.0000 0.28070  0.54210  0.89010  Biso   1.000  O
  O8       1.0000 0.30930  0.60080  0.81340  Biso   1.000  O
  O9       1.0000 0.19450  0.49380  0.63270  Biso   1.000  O
  O10      1.0000 0.28830  0.46650  0.56760  Biso   1.000  O
  O11      1.0000 0.39560  0.67590  0.58270  Biso   1.000  O
  O12      1.0000 0.24230  0.72430  0.56880  Biso   1.000  O
  N1       1.0000 0.06930  0.96710  0.89430  Biso   1.000  N
  N2       1.0000 0.36920  0.06300  0.69730  Biso   1.000  N
  N3       1.0000 0.32820  0.59570  0.47670  Biso   1.000  N
  N4       1.0000 0.49620  0.75450  0.00026  Biso   1.000  N
  N5       1.0000 0.42400  0.44860  0.75660  Biso   1.000  N
  C1       1.0000 0.97470  0.97100  0.91730  Biso   1.000  C
  C2       1.0000 0.94320  0.04910  0.94260  Biso   1.000  C
  H1       1.0000 0.98530  0.09750  0.94670  Biso   1.000  H
  C3       1.0000 0.85110  0.05570  0.96150  Biso   1.000  C
  H2       1.0000 0.82810  0.11160  0.97580  Biso   1.000  H
  C4       1.0000 0.78890  0.97920  0.95990  Biso   1.000  C
  C5       1.0000 0.82580  0.89860  0.93640  Biso   1.000  C
  H3       1.0000 0.78750  0.84600  0.93580  Biso   1.000  H
  C6       1.0000 0.91550  0.89520  0.91470  Biso   1.000  C
  H4       1.0000 0.93760  0.84190  0.89800  Biso   1.000  H
  C7       1.0000 0.68330  0.98930  0.98140  Biso   1.000  C
  C8       1.0000 0.11810  0.05630  0.87950  Biso   1.000  C
  C9       1.0000 0.20880  0.07000  0.89760  Biso   1.000  C
  H5       1.0000 0.24130  0.02290  0.91910  Biso   1.000  H
  C10      1.0000 0.25090  0.15430  0.88370  Biso   1.000  C
  H6       1.0000 0.31290  0.16370  0.89590  Biso   1.000  H
  C11      1.0000 0.20450  0.22600  0.85210  Biso   1.000  C
  C12      1.0000 0.11450  0.21100  0.83440  Biso   1.000  C
  H7       1.0000 0.08260  0.25870  0.81290  Biso   1.000  H
  C13      1.0000 0.06810  0.12620  0.84750  Biso   1.000  C
  H8       1.0000 0.00610  0.11690  0.83540  Biso   1.000  H
  C14      1.0000 0.25410  0.31660  0.83640  Biso   1.000  C
  C15      1.0000 0.12440  0.87760  0.88600  Biso   1.000  C
  C16      1.0000 0.12990  0.80070  0.92230  Biso   1.000  C
  H9       1.0000 0.10070  0.80760  0.95360  Biso   1.000  H
  C17      1.0000 0.17750  0.71480  0.91280  Biso   1.000  C
  H10      1.0000 0.17790  0.66330  0.93720  Biso   1.000  H
  C18      1.0000 0.22440  0.70360  0.86800  Biso   1.000  C
  C19      1.0000 0.21940  0.78170  0.83160  Biso   1.000  C
  H11      1.0000 0.24970  0.77520  0.80050  Biso   1.000  H
  C20      1.0000 0.16980  0.86930  0.84100  Biso   1.000  C
  H12      1.0000 0.16800  0.92110  0.81660  Biso   1.000  H
  C21      1.0000 0.27500  0.60900  0.85710  Biso   1.000  C
  C22      1.0000 0.39850  0.04890  0.74640  Biso   1.000  C
  C23      1.0000 0.38110  0.96640  0.77510  Biso   1.000  C
  H13      1.0000 0.35100  0.91770  0.76060  Biso   1.000  H
  C24      1.0000 0.40640  0.95370  0.82420  Biso   1.000  C
  H14      1.0000 0.39220  0.89670  0.84260  Biso   1.000  H
  C25      1.0000 0.45420  0.02420  0.84880  Biso   1.000  C
  C26      1.0000 0.47290  0.10760  0.81770  Biso   1.000  C
  H15      1.0000 0.50390  0.15650  0.83150  Biso   1.000  H
  C27      1.0000 0.44790  0.11970  0.76880  Biso   1.000  C
  H16      1.0000 0.46340  0.17530  0.74960  Biso   1.000  H
  C28      1.0000 0.47340  0.01310  0.90350  Biso   1.000  C
  C29      1.0000 0.33700  0.15910  0.67430  Biso   1.000  C
  C30      1.0000 0.28210  0.22450  0.70170  Biso   1.000  C
  H17      1.0000 0.26410  0.20680  0.73480  Biso   1.000  H
  C31      1.0000 0.25500  0.31230  0.68100  Biso   1.000  C
  H18      1.0000 0.21890  0.35480  0.70030  Biso   1.000  H
  C32      1.0000 0.27820  0.34220  0.63270  Biso   1.000  C
  C33      1.0000 0.33380  0.27560  0.60550  Biso   1.000  C
  H19      1.0000 0.34980  0.29350  0.57220  Biso   1.000  H
  C34      1.0000 0.36580  0.18600  0.62530  Biso   1.000  C
  H20      1.0000 0.40520  0.14460  0.60680  Biso   1.000  H
  C35      1.0000 0.25000  0.44140  0.61010  Biso   1.000  C
  C36      1.0000 0.36210  0.98340  0.66740  Biso   1.000  C
  C37      1.0000 0.27550  0.97500  0.64090  Biso   1.000  C
  H21      1.0000 0.22350  0.02160  0.64150  Biso   1.000  H
  C38      1.0000 0.26930  0.89470  0.61360  Biso   1.000  C
  H22      1.0000 0.21330  0.89090  0.59450  Biso   1.000  H
  C39      1.0000 0.33870  0.82330  0.61330  Biso   1.000  C
  C40      1.0000 0.41780  0.83060  0.64050  Biso   1.000  C
  H23      1.0000 0.46640  0.78050  0.64220  Biso   1.000  H
  C41      1.0000 0.43100  0.91250  0.66730  Biso   1.000  C
  H24      1.0000 0.48880  0.91630  0.68490  Biso   1.000  H
  C42      1.0000 0.32250  0.73610  0.58600  Biso   1.000  C
  C43      1.0000 0.56440  0.69660  0.02450  Biso   1.000  C
  H25      1.0000 0.61230  0.72460  0.04190  Biso   1.000  H
  C44      1.0000 0.56860  0.59630  0.02540  Biso   1.000  C
  H26      1.0000 0.61730  0.55950  0.04370  Biso   1.000  H
  C45      1.0000 0.50130  0.55270  0.99950  Biso   1.000  C
  C46      1.0000 0.43070  0.61330  0.97410  Biso   1.000  C
  H27      1.0000 0.38290  0.58760  0.95560  Biso   1.000  H
  C47      1.0000 0.43120  0.71090  0.97610  Biso   1.000  C
  H28      1.0000 0.38180  0.74910  0.95910  Biso   1.000  H
  C48      1.0000 0.40660  0.51030  0.71740  Biso   1.000  C
  H29      1.0000 0.36120  0.56220  0.72090  Biso   1.000  H
  C49      1.0000 0.45200  0.50240  0.67090  Biso   1.000  C
  H30      1.0000 0.43650  0.54870  0.64460  Biso   1.000  H
  C50      1.0000 0.51980  0.42750  0.66290  Biso   1.000  C
  C51      1.0000 0.53820  0.35980  0.70300  Biso   1.000  C
  H31      1.0000 0.58300  0.30720  0.70020  Biso   1.000  H
  C52      1.0000 0.48550  0.37380  0.74920  Biso   1.000  C
  H32      1.0000 0.49550  0.32690  0.77570  Biso   1.000  H
  C53      1.0000 0.43170  0.58100  0.38300  Biso   1.000  C
  C54      1.0000 0.43850  0.51080  0.41660  Biso   1.000  C
  H33      1.0000 0.47840  0.45570  0.41160  Biso   1.000  H
  C55      1.0000 0.37930  0.51950  0.46550  Biso   1.000  C
  H34      1.0000 0.38040  0.46590  0.48870  Biso   1.000  H
  C56      1.0000 0.32580  0.65970  0.44350  Biso   1.000  C
  H35      1.0000 0.28250  0.71270  0.44790  Biso   1.000  H
  C57      1.0000 0.38760  0.66320  0.39380  Biso   1.000  C
  H36      1.0000 0.39280  0.71970  0.37320  Biso   1.000  H
  Zn4      1.0000 0.50541  0.10224  0.00020  Biso   1.000  Zn
  Zn5      1.0000 0.63798  0.54014  0.17332  Biso   1.000  Zn
  Zn6      1.0000 0.74980  0.40230  0.45780  Biso   1.000  Zn
  O13      1.0000 0.36140  0.08970  0.01369  Biso   1.000  O
  O14      1.0000 0.35010  0.92970  0.00945  Biso   1.000  O
  O15      1.0000 0.52830  0.06910  0.07446  Biso   1.000  O
  O16      1.0000 0.51110  0.91140  0.07442  Biso   1.000  O
  O17      1.0000 0.78570  0.62090  0.19250  Biso   1.000  O
  O18      1.0000 0.66170  0.67320  0.14420  Biso   1.000  O
  O19      1.0000 0.71930  0.45790  0.10990  Biso   1.000  O
  O20      1.0000 0.69070  0.39920  0.18660  Biso   1.000  O
  O21      1.0000 0.80550  0.50620  0.36730  Biso   1.000  O
  O22      1.0000 0.71170  0.53350  0.43240  Biso   1.000  O
  O23      1.0000 0.60440  0.32410  0.41730  Biso   1.000  O
  O24      1.0000 0.75770  0.27570  0.43120  Biso   1.000  O
  N6       1.0000 0.93070  0.03290  0.10570  Biso   1.000  N
  N7       1.0000 0.63080  0.93700  0.30270  Biso   1.000  N
  N8       1.0000 0.67180  0.40430  0.52330  Biso   1.000  N
  N9       1.0000 0.50380  0.24550  0.99974  Biso   1.000  N
  N10      1.0000 0.57600  0.55140  0.24340  Biso   1.000  N
  C58      1.0000 0.02530  0.02900  0.08270  Biso   1.000  C
  C59      1.0000 0.05680  0.95090  0.05740  Biso   1.000  C
  H37      1.0000 0.01470  0.90250  0.05330  Biso   1.000  H
  C60      1.0000 0.14890  0.94430  0.03850  Biso   1.000  C
  H38      1.0000 0.17190  0.88840  0.02420  Biso   1.000  H
  C61      1.0000 0.21110  0.02080  0.04010  Biso   1.000  C
  C62      1.0000 0.17420  0.10140  0.06360  Biso   1.000  C
  H39      1.0000 0.21250  0.15400  0.06420  Biso   1.000  H
  C63      1.0000 0.08450  0.10480  0.08530  Biso   1.000  C
  H40      1.0000 0.06240  0.15810  0.10200  Biso   1.000  H
  C64      1.0000 0.31670  0.01070  0.01860  Biso   1.000  C
  C65      1.0000 0.88190  0.94370  0.12050  Biso   1.000  C
  C66      1.0000 0.79120  0.93000  0.10240  Biso   1.000  C
  H41      1.0000 0.75870  0.97710  0.08090  Biso   1.000  H
  C67      1.0000 0.74910  0.84570  0.11630  Biso   1.000  C
  H42      1.0000 0.68710  0.83630  0.10410  Biso   1.000  H
  C68      1.0000 0.79550  0.77400  0.14790  Biso   1.000  C
  C69      1.0000 0.88550  0.78900  0.16560  Biso   1.000  C
  H43      1.0000 0.91740  0.74130  0.18710  Biso   1.000  H
  C70      1.0000 0.93190  0.87380  0.15250  Biso   1.000  C
  H44      1.0000 0.99390  0.88310  0.16460  Biso   1.000  H
  C71      1.0000 0.74590  0.68340  0.16360  Biso   1.000  C
  C72      1.0000 0.87560  0.12240  0.11400  Biso   1.000  C
  C73      1.0000 0.87010  0.19930  0.07770  Biso   1.000  C
  H45      1.0000 0.89930  0.19240  0.04640  Biso   1.000  H
  C74      1.0000 0.82250  0.28520  0.08720  Biso   1.000  C
  H46      1.0000 0.82210  0.33670  0.06280  Biso   1.000  H
  C75      1.0000 0.77560  0.29640  0.13200  Biso   1.000  C
  C76      1.0000 0.78060  0.21830  0.16840  Biso   1.000  C
  H47      1.0000 0.75030  0.22480  0.19950  Biso   1.000  H
  C77      1.0000 0.83020  0.13070  0.15900  Biso   1.000  C
  H48      1.0000 0.83200  0.07890  0.18340  Biso   1.000  H
  C78      1.0000 0.72500  0.39100  0.14290  Biso   1.000  C
  C79      1.0000 0.60150  0.95110  0.25360  Biso   1.000  C
  C80      1.0000 0.61890  0.03360  0.22490  Biso   1.000  C
  H49      1.0000 0.64900  0.08230  0.23940  Biso   1.000  H
  C81      1.0000 0.59360  0.04630  0.17580  Biso   1.000  C
  H50      1.0000 0.60780  0.10330  0.15740  Biso   1.000  H
  C82      1.0000 0.54580  0.97580  0.15120  Biso   1.000  C
  C83      1.0000 0.52710  0.89240  0.18230  Biso   1.000  C
  H51      1.0000 0.49610  0.84350  0.16850  Biso   1.000  H
  C84      1.0000 0.55210  0.88030  0.23120  Biso   1.000  C
  H52      1.0000 0.53660  0.82470  0.25040  Biso   1.000  H
  C85      1.0000 0.52660  0.98690  0.09650  Biso   1.000  C
  C86      1.0000 0.66300  0.84090  0.32570  Biso   1.000  C
  C87      1.0000 0.71790  0.77550  0.29830  Biso   1.000  C
  H53      1.0000 0.73590  0.79320  0.26520  Biso   1.000  H
  C88      1.0000 0.74500  0.68770  0.31900  Biso   1.000  C
  H54      1.0000 0.78110  0.64520  0.29970  Biso   1.000  H
  C89      1.0000 0.72180  0.65780  0.36730  Biso   1.000  C
  C90      1.0000 0.66620  0.72440  0.39450  Biso   1.000  C
  H55      1.0000 0.65020  0.70650  0.42780  Biso   1.000  H
  C91      1.0000 0.63420  0.81400  0.37470  Biso   1.000  C
  H56      1.0000 0.59480  0.85540  0.39320  Biso   1.000  H
  C92      1.0000 0.75000  0.55860  0.38990  Biso   1.000  C
  C93      1.0000 0.63790  0.01660  0.33260  Biso   1.000  C
  C94      1.0000 0.72450  0.02500  0.35910  Biso   1.000  C
  H57      1.0000 0.77650  0.97840  0.35850  Biso   1.000  H
  C95      1.0000 0.73070  0.10530  0.38640  Biso   1.000  C
  H58      1.0000 0.78670  0.10910  0.40550  Biso   1.000  H
  C96      1.0000 0.66130  0.17670  0.38670  Biso   1.000  C
  C97      1.0000 0.58220  0.16940  0.35950  Biso   1.000  C
  H59      1.0000 0.53360  0.21950  0.35780  Biso   1.000  H
  C98      1.0000 0.56900  0.08750  0.33270  Biso   1.000  C
  H60      1.0000 0.51120  0.08370  0.31510  Biso   1.000  H
  C99      1.0000 0.67750  0.26390  0.41400  Biso   1.000  C
  C100     1.0000 0.43560  0.30340  0.97550  Biso   1.000  C
  H61      1.0000 0.38770  0.27540  0.95810  Biso   1.000  H
  C101     1.0000 0.43140  0.40370  0.97460  Biso   1.000  C
  H62      1.0000 0.38270  0.44050  0.95630  Biso   1.000  H
  C102     1.0000 0.49870  0.44730  0.00050  Biso   1.000  C
  C103     1.0000 0.56930  0.38670  0.02590  Biso   1.000  C
  H63      1.0000 0.61710  0.41240  0.04440  Biso   1.000  H
  C104     1.0000 0.56880  0.28910  0.02390  Biso   1.000  C
  H64      1.0000 0.61820  0.25090  0.04090  Biso   1.000  H
  C105     1.0000 0.59340  0.48970  0.28260  Biso   1.000  C
  H65      1.0000 0.63880  0.43780  0.27910  Biso   1.000  H
  C106     1.0000 0.54800  0.49760  0.32910  Biso   1.000  C
  H66      1.0000 0.56350  0.45130  0.35540  Biso   1.000  H
  C107     1.0000 0.48020  0.57250  0.33710  Biso   1.000  C
  C108     1.0000 0.46180  0.64020  0.29700  Biso   1.000  C
  H67      1.0000 0.41700  0.69280  0.29980  Biso   1.000  H
  C109     1.0000 0.51450  0.62620  0.25080  Biso   1.000  C
  H68      1.0000 0.50450  0.67310  0.22430  Biso   1.000  H
  C110     1.0000 0.56830  0.41900  0.61700  Biso   1.000  C
  C111     1.0000 0.56150  0.48920  0.58340  Biso   1.000  C
  H69      1.0000 0.52160  0.54430  0.58840  Biso   1.000  H
  C112     1.0000 0.62070  0.48050  0.53450  Biso   1.000  C
  H70      1.0000 0.61960  0.53410  0.51130  Biso   1.000  H
  C113     1.0000 0.67420  0.34030  0.55650  Biso   1.000  C
  H71      1.0000 0.71750  0.28730  0.55210  Biso   1.000  H
  C114     1.0000 0.61240  0.33680  0.60620  Biso   1.000  C
  H72      1.0000 0.60720  0.28030  0.62680  Biso   1.000  H
