data_image0
_cell_length_a       10.5959
_cell_length_b       19.5181
_cell_length_c       7.731
_cell_angle_alpha    90
_cell_angle_beta     104.956
_cell_angle_gamma    90

_symmetry_space_group_name_H-M    "P 1"
_symmetry_int_tables_number       1

loop_
  _symmetry_equiv_pos_as_xyz
  'x, y, z'

loop_
  _atom_site_label
  _atom_site_occupancy
  _atom_site_fract_x
  _atom_site_fract_y
  _atom_site_fract_z
  _atom_site_thermal_displace_type
  _atom_site_B_iso_or_equiv
  _atom_site_type_symbol
  N1       1.0000 0.37620  0.02900  0.32190  Biso   1.000  N
  N2       1.0000 0.38960  0.05970  0.48850  Biso   1.000  N
  N3       1.0000 0.24080  0.11420  0.28950  Biso   1.000  N
  N4       1.0000 0.29560  0.15650  0.58910  Biso   1.000  N
  H1       1.0000 0.25600  0.19520  0.56630  Biso   1.000  H
  N5       1.0000 0.35590  0.13420  0.76360  Biso   1.000  N
  H2       1.0000 0.29500  0.11930  0.81710  Biso   1.000  H
  H3       1.0000 0.39940  0.16910  0.82840  Biso   1.000  H
  N6       1.0000 0.14600  0.16430  0.22130  Biso   1.000  N
  H4       1.0000 0.07350  0.14390  0.15820  Biso   1.000  H
  H5       1.0000 0.17590  0.19250  0.15050  Biso   1.000  H
  C1       1.0000 0.30560  0.11160  0.46050  Biso   1.000  C
  C2       1.0000 0.28590  0.06150  0.20500  Biso   1.000  C
  H6       1.0000 0.25680  0.05080  0.08410  Biso   1.000  H
  N7       1.0000 0.62380  0.02900  0.17810  Biso   1.000  N
  N8       1.0000 0.61040  0.05970  0.01150  Biso   1.000  N
  N9       1.0000 0.75920  0.11420  0.21050  Biso   1.000  N
  N10      1.0000 0.70440  0.15650  0.91090  Biso   1.000  N
  H7       1.0000 0.74400  0.19520  0.93370  Biso   1.000  H
  N11      1.0000 0.64410  0.13420  0.73640  Biso   1.000  N
  H8       1.0000 0.70500  0.11930  0.68290  Biso   1.000  H
  H9       1.0000 0.60060  0.16910  0.67160  Biso   1.000  H
  N12      1.0000 0.85400  0.16430  0.27870  Biso   1.000  N
  H10      1.0000 0.92650  0.14390  0.34180  Biso   1.000  H
  H11      1.0000 0.82410  0.19250  0.34950  Biso   1.000  H
  C3       1.0000 0.69440  0.11160  0.03950  Biso   1.000  C
  C4       1.0000 0.71410  0.06150  0.29500  Biso   1.000  C
  H12      1.0000 0.74320  0.05080  0.41590  Biso   1.000  H
  N13      1.0000 0.62380  0.97100  0.67810  Biso   1.000  N
  N14      1.0000 0.61040  0.94030  0.51150  Biso   1.000  N
  N15      1.0000 0.75920  0.88580  0.71050  Biso   1.000  N
  N16      1.0000 0.70440  0.84350  0.41090  Biso   1.000  N
  H13      1.0000 0.74400  0.80480  0.43370  Biso   1.000  H
  N17      1.0000 0.64410  0.86580  0.23640  Biso   1.000  N
  H14      1.0000 0.70500  0.88070  0.18290  Biso   1.000  H
  H15      1.0000 0.60060  0.83090  0.17160  Biso   1.000  H
  N18      1.0000 0.85400  0.83570  0.77870  Biso   1.000  N
  H16      1.0000 0.92650  0.85610  0.84180  Biso   1.000  H
  H17      1.0000 0.82410  0.80750  0.84950  Biso   1.000  H
  C5       1.0000 0.69440  0.88840  0.53950  Biso   1.000  C
  C6       1.0000 0.71410  0.93850  0.79500  Biso   1.000  C
  H18      1.0000 0.74320  0.94920  0.91590  Biso   1.000  H
  N19      1.0000 0.37620  0.97100  0.82190  Biso   1.000  N
  N20      1.0000 0.38960  0.94030  0.98850  Biso   1.000  N
  N21      1.0000 0.24080  0.88580  0.78950  Biso   1.000  N
  N22      1.0000 0.29560  0.84350  0.08910  Biso   1.000  N
  H19      1.0000 0.25600  0.80480  0.06630  Biso   1.000  H
  N23      1.0000 0.35590  0.86580  0.26360  Biso   1.000  N
  H20      1.0000 0.29500  0.88070  0.31710  Biso   1.000  H
  H21      1.0000 0.39940  0.83090  0.32840  Biso   1.000  H
  N24      1.0000 0.14600  0.83570  0.72130  Biso   1.000  N
  H22      1.0000 0.07350  0.85610  0.65820  Biso   1.000  H
  H23      1.0000 0.17590  0.80750  0.65050  Biso   1.000  H
  C7       1.0000 0.30560  0.88840  0.96050  Biso   1.000  C
  C8       1.0000 0.28590  0.93850  0.70500  Biso   1.000  C
  H24      1.0000 0.25680  0.94920  0.58410  Biso   1.000  H
  Zn1      1.0000 0.50000  0.04598  0.75000  Biso   1.000  Zn
  Zn2      1.0000 0.50000  0.95402  0.25000  Biso   1.000  Zn
  N25      1.0000 0.87620  0.52900  0.32190  Biso   1.000  N
  N26      1.0000 0.88960  0.55970  0.48850  Biso   1.000  N
  N27      1.0000 0.74080  0.61420  0.28950  Biso   1.000  N
  N28      1.0000 0.79560  0.65650  0.58910  Biso   1.000  N
  H25      1.0000 0.75600  0.69520  0.56630  Biso   1.000  H
  N29      1.0000 0.85590  0.63420  0.76360  Biso   1.000  N
  H26      1.0000 0.79500  0.61930  0.81710  Biso   1.000  H
  H27      1.0000 0.89940  0.66910  0.82840  Biso   1.000  H
  N30      1.0000 0.64600  0.66430  0.22130  Biso   1.000  N
  H28      1.0000 0.57350  0.64390  0.15820  Biso   1.000  H
  H29      1.0000 0.67590  0.69250  0.15050  Biso   1.000  H
  C9       1.0000 0.80560  0.61160  0.46050  Biso   1.000  C
  C10      1.0000 0.78590  0.56150  0.20500  Biso   1.000  C
  H30      1.0000 0.75680  0.55080  0.08410  Biso   1.000  H
  N31      1.0000 0.12380  0.52900  0.17810  Biso   1.000  N
  N32      1.0000 0.11040  0.55970  0.01150  Biso   1.000  N
  N33      1.0000 0.25920  0.61420  0.21050  Biso   1.000  N
  N34      1.0000 0.20440  0.65650  0.91090  Biso   1.000  N
  H31      1.0000 0.24400  0.69520  0.93370  Biso   1.000  H
  N35      1.0000 0.14410  0.63420  0.73640  Biso   1.000  N
  H32      1.0000 0.20500  0.61930  0.68290  Biso   1.000  H
  H33      1.0000 0.10060  0.66910  0.67160  Biso   1.000  H
  N36      1.0000 0.35400  0.66430  0.27870  Biso   1.000  N
  H34      1.0000 0.42650  0.64390  0.34180  Biso   1.000  H
  H35      1.0000 0.32410  0.69250  0.34950  Biso   1.000  H
  C11      1.0000 0.19440  0.61160  0.03950  Biso   1.000  C
  C12      1.0000 0.21410  0.56150  0.29500  Biso   1.000  C
  H36      1.0000 0.24320  0.55080  0.41590  Biso   1.000  H
  N37      1.0000 0.12380  0.47100  0.67810  Biso   1.000  N
  N38      1.0000 0.11040  0.44030  0.51150  Biso   1.000  N
  N39      1.0000 0.25920  0.38580  0.71050  Biso   1.000  N
  N40      1.0000 0.20440  0.34350  0.41090  Biso   1.000  N
  H37      1.0000 0.24400  0.30480  0.43370  Biso   1.000  H
  N41      1.0000 0.14410  0.36580  0.23640  Biso   1.000  N
  H38      1.0000 0.20500  0.38070  0.18290  Biso   1.000  H
  H39      1.0000 0.10060  0.33090  0.17160  Biso   1.000  H
  N42      1.0000 0.35400  0.33570  0.77870  Biso   1.000  N
  H40      1.0000 0.42650  0.35610  0.84180  Biso   1.000  H
  H41      1.0000 0.32410  0.30750  0.84950  Biso   1.000  H
  C13      1.0000 0.19440  0.38840  0.53950  Biso   1.000  C
  C14      1.0000 0.21410  0.43850  0.79500  Biso   1.000  C
  H42      1.0000 0.24320  0.44920  0.91590  Biso   1.000  H
  N43      1.0000 0.87620  0.47100  0.82190  Biso   1.000  N
  N44      1.0000 0.88960  0.44030  0.98850  Biso   1.000  N
  N45      1.0000 0.74080  0.38580  0.78950  Biso   1.000  N
  N46      1.0000 0.79560  0.34350  0.08910  Biso   1.000  N
  H43      1.0000 0.75600  0.30480  0.06630  Biso   1.000  H
  N47      1.0000 0.85590  0.36580  0.26360  Biso   1.000  N
  H44      1.0000 0.79500  0.38070  0.31710  Biso   1.000  H
  H45      1.0000 0.89940  0.33090  0.32840  Biso   1.000  H
  N48      1.0000 0.64600  0.33570  0.72130  Biso   1.000  N
  H46      1.0000 0.57350  0.35610  0.65820  Biso   1.000  H
  H47      1.0000 0.67590  0.30750  0.65050  Biso   1.000  H
  C15      1.0000 0.80560  0.38840  0.96050  Biso   1.000  C
  C16      1.0000 0.78590  0.43850  0.70500  Biso   1.000  C
  H48      1.0000 0.75680  0.44920  0.58410  Biso   1.000  H
  Zn3      1.0000 0.00000  0.54598  0.75000  Biso   1.000  Zn
  Zn4      1.0000 0.00000  0.45402  0.25000  Biso   1.000  Zn
