data_image0
_cell_length_a       10.6665
_cell_length_b       11.9325
_cell_length_c       13.7832
_cell_angle_alpha    95.752
_cell_angle_beta     105.003
_cell_angle_gamma    90.677

_symmetry_space_group_name_H-M    "P 1"
_symmetry_int_tables_number       1

loop_
  _symmetry_equiv_pos_as_xyz
  'x, y, z'

loop_
  _atom_site_label
  _atom_site_occupancy
  _atom_site_fract_x
  _atom_site_fract_y
  _atom_site_fract_z
  _atom_site_thermal_displace_type
  _atom_site_B_iso_or_equiv
  _atom_site_type_symbol
  N1       1.0000 0.82250  0.06600  0.96260  Biso   1.000  N
  H1       1.0000 0.83470  0.13860  0.95110  Biso   1.000  H
  N2       1.0000 0.04210  0.07020  0.14300  Biso   1.000  N
  H2       1.0000 0.06660  0.14330  0.14220  Biso   1.000  H
  C1       1.0000 0.93730  0.07230  0.19510  Biso   1.000  C
  H3       1.0000 0.97020  0.10940  0.26310  Biso   1.000  H
  H4       1.0000 0.91070  0.99550  0.20010  Biso   1.000  H
  C2       1.0000 0.15890  0.01530  0.20010  Biso   1.000  C
  H5       1.0000 0.13340  0.94450  0.22000  Biso   1.000  H
  H6       1.0000 0.20190  0.06370  0.26070  Biso   1.000  H
  C3       1.0000 0.75060  0.00560  0.86610  Biso   1.000  C
  H7       1.0000 0.67940  0.05010  0.83360  Biso   1.000  H
  H8       1.0000 0.71480  0.93450  0.87750  Biso   1.000  H
  C4       1.0000 0.82190  0.13250  0.14090  Biso   1.000  C
  H9       1.0000 0.85050  0.20630  0.12940  Biso   1.000  H
  H10      1.0000 0.76270  0.14340  0.18360  Biso   1.000  H
  C5       1.0000 0.74950  0.06920  0.03990  Biso   1.000  C
  H11      1.0000 0.72980  0.99250  0.05050  Biso   1.000  H
  H12      1.0000 0.66770  0.10470  0.01500  Biso   1.000  H
  N3       1.0000 0.17750  0.93400  0.03740  Biso   1.000  N
  H13      1.0000 0.16530  0.86140  0.04890  Biso   1.000  H
  N4       1.0000 0.95790  0.92980  0.85700  Biso   1.000  N
  H14      1.0000 0.93340  0.85670  0.85780  Biso   1.000  H
  C6       1.0000 0.06270  0.92770  0.80490  Biso   1.000  C
  H15      1.0000 0.02980  0.89060  0.73690  Biso   1.000  H
  H16      1.0000 0.08930  0.00450  0.79990  Biso   1.000  H
  C7       1.0000 0.84110  0.98470  0.79990  Biso   1.000  C
  H17      1.0000 0.86660  0.05550  0.78000  Biso   1.000  H
  H18      1.0000 0.79810  0.93630  0.73930  Biso   1.000  H
  C8       1.0000 0.24940  0.99440  0.13390  Biso   1.000  C
  H19      1.0000 0.32060  0.94990  0.16640  Biso   1.000  H
  H20      1.0000 0.28520  0.06550  0.12250  Biso   1.000  H
  C9       1.0000 0.17810  0.86750  0.85910  Biso   1.000  C
  H21      1.0000 0.14950  0.79370  0.87060  Biso   1.000  H
  H22      1.0000 0.23730  0.85660  0.81640  Biso   1.000  H
  C10      1.0000 0.25050  0.93080  0.96010  Biso   1.000  C
  H23      1.0000 0.27020  0.00750  0.94950  Biso   1.000  H
  H24      1.0000 0.33230  0.89530  0.98500  Biso   1.000  H
  Cu1      1.0000 0.00000  0.00000  0.00000  Biso   1.000  Cu
  N5       1.0000 0.89390  0.35640  0.48280  Biso   1.000  N
  H25      1.0000 0.90670  0.33300  0.54530  Biso   1.000  H
  N6       1.0000 0.86670  0.59470  0.54690  Biso   1.000  N
  H26      1.0000 0.87790  0.58650  0.61350  Biso   1.000  H
  C11      1.0000 0.09740  0.28670  0.45900  Biso   1.000  C
  H27      1.0000 0.12710  0.26850  0.52810  Biso   1.000  H
  H28      1.0000 0.13780  0.23680  0.41700  Biso   1.000  H
  C12      1.0000 0.72680  0.56860  0.49650  Biso   1.000  C
  H29      1.0000 0.70910  0.58330  0.42630  Biso   1.000  H
  H30      1.0000 0.67440  0.61770  0.52890  Biso   1.000  H
  C13      1.0000 0.68890  0.44690  0.50130  Biso   1.000  C
  H31      1.0000 0.59520  0.43710  0.47690  Biso   1.000  H
  H32      1.0000 0.71300  0.43160  0.57140  Biso   1.000  H
  C14      1.0000 0.75070  0.36010  0.44040  Biso   1.000  C
  H33      1.0000 0.71140  0.28620  0.43940  Biso   1.000  H
  H34      1.0000 0.73290  0.37840  0.37120  Biso   1.000  H
  C15      1.0000 0.95230  0.27170  0.42300  Biso   1.000  C
  H35      1.0000 0.92350  0.28190  0.35180  Biso   1.000  H
  H36      1.0000 0.92530  0.19620  0.43170  Biso   1.000  H
  N7       1.0000 0.10610  0.64360  0.51720  Biso   1.000  N
  H37      1.0000 0.09330  0.66700  0.45470  Biso   1.000  H
  N8       1.0000 0.13330  0.40530  0.45310  Biso   1.000  N
  H38      1.0000 0.12210  0.41350  0.38650  Biso   1.000  H
  C16      1.0000 0.90260  0.71330  0.54100  Biso   1.000  C
  H39      1.0000 0.87290  0.73150  0.47190  Biso   1.000  H
  H40      1.0000 0.86220  0.76320  0.58300  Biso   1.000  H
  C17      1.0000 0.27320  0.43140  0.50350  Biso   1.000  C
  H41      1.0000 0.29090  0.41670  0.57370  Biso   1.000  H
  H42      1.0000 0.32560  0.38230  0.47110  Biso   1.000  H
  C18      1.0000 0.31110  0.55310  0.49870  Biso   1.000  C
  H43      1.0000 0.40480  0.56290  0.52310  Biso   1.000  H
  H44      1.0000 0.28700  0.56840  0.42860  Biso   1.000  H
  C19      1.0000 0.24930  0.63990  0.55960  Biso   1.000  C
  H45      1.0000 0.28860  0.71380  0.56060  Biso   1.000  H
  H46      1.0000 0.26710  0.62160  0.62880  Biso   1.000  H
  C20      1.0000 0.04770  0.72830  0.57700  Biso   1.000  C
  H47      1.0000 0.07650  0.71810  0.64820  Biso   1.000  H
  H48      1.0000 0.07470  0.80380  0.56830  Biso   1.000  H
  Cu2      1.0000 0.00000  0.50000  0.50000  Biso   1.000  Cu
  N9       1.0000 0.41700  0.36180  0.91260  Biso   1.000  N
  H49      1.0000 0.33010  0.36530  0.90630  Biso   1.000  H
  N10      1.0000 0.50990  0.55990  0.87200  Biso   1.000  N
  H50      1.0000 0.59400  0.55640  0.86890  Biso   1.000  H
  C21      1.0000 0.45610  0.25130  0.94760  Biso   1.000  C
  H51      1.0000 0.54590  0.24070  0.94690  Biso   1.000  H
  H52      1.0000 0.40330  0.19240  0.90060  Biso   1.000  H
  C22      1.0000 0.47250  0.67930  0.86430  Biso   1.000  C
  H53      1.0000 0.38310  0.68550  0.86750  Biso   1.000  H
  H54      1.0000 0.47760  0.70030  0.79920  Biso   1.000  H
  C23      1.0000 0.43190  0.48620  0.78650  Biso   1.000  C
  H55      1.0000 0.46450  0.49290  0.72780  Biso   1.000  H
  H56      1.0000 0.34270  0.50960  0.77090  Biso   1.000  H
  C24      1.0000 0.44220  0.23930  0.05310  Biso   1.000  C
  H57      1.0000 0.35230  0.24990  0.05330  Biso   1.000  H
  H58      1.0000 0.46250  0.16300  0.06860  Biso   1.000  H
  C25      1.0000 0.43570  0.36640  0.80890  Biso   1.000  C
  H59      1.0000 0.51870  0.33590  0.80580  Biso   1.000  H
  H60      1.0000 0.36750  0.32170  0.75940  Biso   1.000  H
  N11      1.0000 0.58300  0.63820  0.08740  Biso   1.000  N
  H61      1.0000 0.66990  0.63470  0.09370  Biso   1.000  H
  N12      1.0000 0.49010  0.44010  0.12800  Biso   1.000  N
  H62      1.0000 0.40600  0.44360  0.13110  Biso   1.000  H
  C26      1.0000 0.54390  0.74870  0.05240  Biso   1.000  C
  H63      1.0000 0.45410  0.75930  0.05310  Biso   1.000  H
  H64      1.0000 0.59670  0.80760  0.09940  Biso   1.000  H
  C27      1.0000 0.52750  0.32070  0.13570  Biso   1.000  C
  H65      1.0000 0.61690  0.31450  0.13250  Biso   1.000  H
  H66      1.0000 0.52240  0.29970  0.20080  Biso   1.000  H
  C28      1.0000 0.56810  0.51380  0.21350  Biso   1.000  C
  H67      1.0000 0.53550  0.50710  0.27220  Biso   1.000  H
  H68      1.0000 0.65730  0.49040  0.22910  Biso   1.000  H
  C29      1.0000 0.55780  0.76070  0.94690  Biso   1.000  C
  H69      1.0000 0.64770  0.75010  0.94670  Biso   1.000  H
  H70      1.0000 0.53750  0.83700  0.93140  Biso   1.000  H
  C30      1.0000 0.56430  0.63360  0.19110  Biso   1.000  C
  H71      1.0000 0.48130  0.66410  0.19420  Biso   1.000  H
  H72      1.0000 0.63250  0.67830  0.24060  Biso   1.000  H
  Cu3      1.0000 0.50000  0.50000  0.00000  Biso   1.000  Cu
  V1       1.0000 0.06059  0.29266  0.93458  Biso   1.000  V
  V2       1.0000 0.13729  0.39299  0.15476  Biso   1.000  V
  V3       1.0000 0.79866  0.35110  0.79013  Biso   1.000  V
  V4       1.0000 0.86385  0.44604  0.01392  Biso   1.000  V
  V5       1.0000 0.94637  0.54979  0.23353  Biso   1.000  V
  O1       1.0000 0.18700  0.40650  0.02630  Biso   1.000  O
  O2       1.0000 0.90350  0.24220  0.85310  Biso   1.000  O
  O3       1.0000 0.12740  0.32570  0.83040  Biso   1.000  O
  O4       1.0000 0.74130  0.49820  0.78080  Biso   1.000  O
  O5       1.0000 0.81150  0.45920  0.12070  Biso   1.000  O
  O6       1.0000 0.03530  0.41560  0.24180  Biso   1.000  O
  O7       1.0000 0.74640  0.36950  0.92450  Biso   1.000  O
  O8       1.0000 0.90260  0.36710  0.70540  Biso   1.000  O
  O9       1.0000 0.98080  0.32660  0.04770  Biso   1.000  O
  O10      1.0000 0.96750  0.45680  0.90360  Biso   1.000  O
  V6       1.0000 0.93941  0.70734  0.06542  Biso   1.000  V
  V7       1.0000 0.86271  0.60701  0.84524  Biso   1.000  V
  V8       1.0000 0.20134  0.64890  0.20987  Biso   1.000  V
  V9       1.0000 0.13615  0.55396  0.98608  Biso   1.000  V
  V10      1.0000 0.05363  0.45021  0.76647  Biso   1.000  V
  O11      1.0000 0.81300  0.59350  0.97370  Biso   1.000  O
  O12      1.0000 0.09650  0.75780  0.14690  Biso   1.000  O
  O13      1.0000 0.87260  0.67430  0.16960  Biso   1.000  O
  O14      1.0000 0.25870  0.50180  0.21920  Biso   1.000  O
  O15      1.0000 0.18850  0.54080  0.87930  Biso   1.000  O
  O16      1.0000 0.96470  0.58440  0.75820  Biso   1.000  O
  O17      1.0000 0.25360  0.63050  0.07550  Biso   1.000  O
  O18      1.0000 0.09740  0.63290  0.29460  Biso   1.000  O
  O19      1.0000 0.01920  0.67340  0.95230  Biso   1.000  O
  O20      1.0000 0.03250  0.54320  0.09640  Biso   1.000  O
