data_image0
_cell_length_a       18.237
_cell_length_b       32.482
_cell_length_c       12.878
_cell_angle_alpha    90
_cell_angle_beta     90
_cell_angle_gamma    90

_symmetry_space_group_name_H-M    "P 1"
_symmetry_int_tables_number       1

loop_
  _symmetry_equiv_pos_as_xyz
  'x, y, z'

loop_
  _atom_site_label
  _atom_site_occupancy
  _atom_site_fract_x
  _atom_site_fract_y
  _atom_site_fract_z
  _atom_site_thermal_displace_type
  _atom_site_B_iso_or_equiv
  _atom_site_type_symbol
  Ru1      1.0000 0.20606  0.71119  0.28944  Biso   1.000  Ru
  Br1      1.0000 0.39764  0.84660  0.42234  Biso   1.000  Br
  Br2      1.0000 0.12675  0.65699  0.87290  Biso   1.000  Br
  N1       1.0000 0.13640  0.66139  0.31250  Biso   1.000  N
  N2       1.0000 0.28190  0.66481  0.30660  Biso   1.000  N
  N3       1.0000 0.19250  0.71868  0.44830  Biso   1.000  N
  N4       1.0000 0.12040  0.75250  0.28990  Biso   1.000  N
  N5       1.0000 0.28230  0.75722  0.26690  Biso   1.000  N
  N6       1.0000 0.21730  0.71017  0.12960  Biso   1.000  N
  C1       1.0000 0.06330  0.66048  0.31370  Biso   1.000  C
  H1       1.0000 0.03690  0.68360  0.28810  Biso   1.000  H
  C2       1.0000 0.02420  0.62640  0.35160  Biso   1.000  C
  H2       1.0000 0.97210  0.62690  0.35290  Biso   1.000  H
  C3       1.0000 0.06100  0.59260  0.38660  Biso   1.000  C
  H3       1.0000 0.03460  0.56970  0.41350  Biso   1.000  H
  C4       1.0000 0.13820  0.59158  0.38270  Biso   1.000  C
  C5       1.0000 0.18170  0.55741  0.41540  Biso   1.000  C
  H4       1.0000 0.15820  0.53350  0.44190  Biso   1.000  H
  C6       1.0000 0.25610  0.55830  0.40950  Biso   1.000  C
  H5       1.0000 0.28370  0.53520  0.43210  Biso   1.000  H
  C7       1.0000 0.29360  0.59396  0.36930  Biso   1.000  C
  C8       1.0000 0.37020  0.59667  0.35830  Biso   1.000  C
  H6       1.0000 0.40090  0.57430  0.37770  Biso   1.000  H
  C9       1.0000 0.39950  0.63238  0.31900  Biso   1.000  C
  H7       1.0000 0.45090  0.63430  0.30810  Biso   1.000  H
  C10      1.0000 0.35440  0.66608  0.29480  Biso   1.000  C
  H8       1.0000 0.37630  0.69060  0.26920  Biso   1.000  H
  C11      1.0000 0.25170  0.62850  0.33960  Biso   1.000  C
  C12      1.0000 0.17340  0.62700  0.34460  Biso   1.000  C
  C13      1.0000 0.08320  0.76815  0.20900  Biso   1.000  C
  H9       1.0000 0.10090  0.76310  0.14080  Biso   1.000  H
  C14      1.0000 0.01950  0.79160  0.22110  Biso   1.000  C
  H10      1.0000 0.99450  0.80170  0.16160  Biso   1.000  H
  C15      1.0000 0.99280  0.80000  0.31800  Biso   1.000  C
  H11      1.0000 0.94910  0.81560  0.32680  Biso   1.000  H
  C16      1.0000 0.03190  0.78499  0.40480  Biso   1.000  C
  C17      1.0000 0.00900  0.79180  0.50970  Biso   1.000  C
  H12      1.0000 0.96720  0.80840  0.52310  Biso   1.000  H
  C18      1.0000 0.04610  0.77500  0.58990  Biso   1.000  C
  H13      1.0000 0.03030  0.78040  0.65890  Biso   1.000  H
  C19      1.0000 0.10870  0.74920  0.57310  Biso   1.000  C
  C20      1.0000 0.14610  0.72870  0.65400  Biso   1.000  C
  H14      1.0000 0.13120  0.73190  0.72420  Biso   1.000  H
  C21      1.0000 0.20470  0.70382  0.62890  Biso   1.000  C
  H15      1.0000 0.22990  0.68920  0.68190  Biso   1.000  H
  C22      1.0000 0.22730  0.70012  0.52550  Biso   1.000  C
  H16      1.0000 0.26910  0.68370  0.51020  Biso   1.000  H
  C23      1.0000 0.13280  0.74301  0.47150  Biso   1.000  C
  C24      1.0000 0.09410  0.76090  0.38620  Biso   1.000  C
  C25      1.0000 0.17720  0.68641  0.06570  Biso   1.000  C
  H17      1.0000 0.14180  0.66800  0.09360  Biso   1.000  H
  C26      1.0000 0.18720  0.68864  0.95990  Biso   1.000  C
  C27      1.0000 0.24090  0.71390  0.91800  Biso   1.000  C
  H18      1.0000 0.24980  0.71440  0.84530  Biso   1.000  H
  C28      1.0000 0.28110  0.73820  0.98490  Biso   1.000  C
  H19      1.0000 0.31790  0.75610  0.95850  Biso   1.000  H
  C29      1.0000 0.26760  0.73655  0.09090  Biso   1.000  C
  C30      1.0000 0.30420  0.76324  0.16710  Biso   1.000  C
  C31      1.0000 0.35480  0.79310  0.14000  Biso   1.000  C
  H20      1.0000 0.37020  0.79600  0.06990  Biso   1.000  H
  C32      1.0000 0.38300  0.81910  0.21660  Biso   1.000  C
  H21      1.0000 0.41670  0.84030  0.19970  Biso   1.000  H
  C33      1.0000 0.36070  0.81300  0.31650  Biso   1.000  C
  C34      1.0000 0.31090  0.78170  0.33940  Biso   1.000  C
  H22      1.0000 0.29680  0.77770  0.40970  Biso   1.000  H
  Ru2      1.0000 0.54597  0.54280  0.06566  Biso   1.000  Ru
  Br3      1.0000 0.53886  0.57750  0.51354  Biso   1.000  Br
  Br4      1.0000 0.67685  0.63457  0.72427  Biso   1.000  Br
  N7       1.0000 0.48360  0.49712  0.13260  Biso   1.000  N
  N8       1.0000 0.44490  0.57155  0.06640  Biso   1.000  N
  N9       1.0000 0.53050  0.51547  0.92340  Biso   1.000  N
  N10      1.0000 0.63870  0.50639  0.05890  Biso   1.000  N
  N11      1.0000 0.60470  0.59052  0.00420  Biso   1.000  N
  N12      1.0000 0.57650  0.57373  0.19780  Biso   1.000  N
  C35      1.0000 0.50320  0.45945  0.16240  Biso   1.000  C
  H23      1.0000 0.55360  0.45210  0.15910  Biso   1.000  H
  C36      1.0000 0.45280  0.43002  0.19870  Biso   1.000  C
  H24      1.0000 0.46930  0.40340  0.21820  Biso   1.000  H
  C37      1.0000 0.38020  0.43970  0.20580  Biso   1.000  C
  H25      1.0000 0.34600  0.42000  0.23080  Biso   1.000  H
  C38      1.0000 0.35620  0.47964  0.17540  Biso   1.000  C
  C39      1.0000 0.28190  0.49260  0.18030  Biso   1.000  C
  H26      1.0000 0.24560  0.47460  0.20730  Biso   1.000  H
  C40      1.0000 0.26240  0.53110  0.14620  Biso   1.000  C
  H27      1.0000 0.21240  0.53910  0.14830  Biso   1.000  H
  C41      1.0000 0.31620  0.55928  0.10750  Biso   1.000  C
  C42      1.0000 0.29870  0.59894  0.07070  Biso   1.000  C
  H28      1.0000 0.24950  0.60850  0.07130  Biso   1.000  H
  C43      1.0000 0.35450  0.62347  0.03380  Biso   1.000  C
  H29      1.0000 0.34390  0.65040  0.00950  Biso   1.000  H
  C44      1.0000 0.42660  0.60878  0.03210  Biso   1.000  C
  H30      1.0000 0.46410  0.62610  0.00530  Biso   1.000  H
  C45      1.0000 0.38970  0.54679  0.10330  Biso   1.000  C
  C46      1.0000 0.41040  0.50679  0.13920  Biso   1.000  C
  C47      1.0000 0.69110  0.50160  0.12880  Biso   1.000  C
  H31      1.0000 0.68830  0.51700  0.19150  Biso   1.000  H
  C48      1.0000 0.75080  0.47490  0.11430  Biso   1.000  C
  H32      1.0000 0.78750  0.47250  0.16640  Biso   1.000  H
  C49      1.0000 0.75580  0.45230  0.02500  Biso   1.000  C
  H33      1.0000 0.79510  0.43360  0.01520  Biso   1.000  H
  C50      1.0000 0.70190  0.45725  0.94780  Biso   1.000  C
  C51      1.0000 0.70290  0.43600  0.85000  Biso   1.000  C
  H34      1.0000 0.74130  0.41710  0.83550  Biso   1.000  H
  C52      1.0000 0.65000  0.44250  0.77810  Biso   1.000  C
  H35      1.0000 0.65280  0.42870  0.71310  Biso   1.000  H
  C53      1.0000 0.58930  0.46980  0.79840  Biso   1.000  C
  C54      1.0000 0.53200  0.47700  0.72750  Biso   1.000  C
  H36      1.0000 0.53200  0.46400  0.66130  Biso   1.000  H
  C55      1.0000 0.47560  0.50320  0.75630  Biso   1.000  C
  H37      1.0000 0.43670  0.50880  0.70940  Biso   1.000  H
  C56      1.0000 0.47640  0.52159  0.85580  Biso   1.000  C
  H38      1.0000 0.43680  0.53900  0.87510  Biso   1.000  H
  C57      1.0000 0.58670  0.48982  0.89500  Biso   1.000  C
  C58      1.0000 0.64430  0.48446  0.96850  Biso   1.000  C
  C59      1.0000 0.55540  0.56470  0.29590  Biso   1.000  C
  H39      1.0000 0.52640  0.54090  0.30780  Biso   1.000  H
  C60      1.0000 0.57480  0.58920  0.37980  Biso   1.000  C
  C61      1.0000 0.61920  0.62370  0.36400  Biso   1.000  C
  H40      1.0000 0.63310  0.64070  0.42060  Biso   1.000  H
  C62      1.0000 0.64260  0.63240  0.26500  Biso   1.000  C
  H41      1.0000 0.67350  0.65540  0.25230  Biso   1.000  H
  C63      1.0000 0.62030  0.60682  0.18250  Biso   1.000  C
  C64      1.0000 0.63930  0.61510  0.07480  Biso   1.000  C
  C65      1.0000 0.68870  0.64580  0.04230  Biso   1.000  C
  H42      1.0000 0.71340  0.66210  0.09250  Biso   1.000  H
  C66      1.0000 0.70120  0.65200  0.94120  Biso   1.000  C
  H43      1.0000 0.73490  0.67240  0.91830  Biso   1.000  H
  C67      1.0000 0.66300  0.62760  0.87100  Biso   1.000  C
  C68      1.0000 0.61570  0.59745  0.90340  Biso   1.000  C
  H44      1.0000 0.59040  0.58130  0.85340  Biso   1.000  H
  Ru3      1.0000 0.29394  0.28881  0.78944  Biso   1.000  Ru
  Br5      1.0000 0.10236  0.15340  0.92234  Biso   1.000  Br
  Br6      1.0000 0.37325  0.34301  0.37290  Biso   1.000  Br
  N13      1.0000 0.36360  0.33861  0.81250  Biso   1.000  N
  N14      1.0000 0.21810  0.33519  0.80660  Biso   1.000  N
  N15      1.0000 0.30750  0.28132  0.94830  Biso   1.000  N
  N16      1.0000 0.37960  0.24750  0.78990  Biso   1.000  N
  N17      1.0000 0.21770  0.24278  0.76690  Biso   1.000  N
  N18      1.0000 0.28270  0.28983  0.62960  Biso   1.000  N
  C69      1.0000 0.43670  0.33952  0.81370  Biso   1.000  C
  H45      1.0000 0.46310  0.31640  0.78810  Biso   1.000  H
  C70      1.0000 0.47580  0.37360  0.85160  Biso   1.000  C
  H46      1.0000 0.52790  0.37310  0.85290  Biso   1.000  H
  C71      1.0000 0.43900  0.40740  0.88660  Biso   1.000  C
  H47      1.0000 0.46540  0.43030  0.91350  Biso   1.000  H
  C72      1.0000 0.36180  0.40842  0.88270  Biso   1.000  C
  C73      1.0000 0.31830  0.44259  0.91540  Biso   1.000  C
  H48      1.0000 0.34180  0.46650  0.94190  Biso   1.000  H
  C74      1.0000 0.24390  0.44170  0.90950  Biso   1.000  C
  H49      1.0000 0.21630  0.46480  0.93210  Biso   1.000  H
  C75      1.0000 0.20640  0.40604  0.86930  Biso   1.000  C
  C76      1.0000 0.12980  0.40333  0.85830  Biso   1.000  C
  H50      1.0000 0.09910  0.42570  0.87770  Biso   1.000  H
  C77      1.0000 0.10050  0.36762  0.81900  Biso   1.000  C
  H51      1.0000 0.04910  0.36570  0.80810  Biso   1.000  H
  C78      1.0000 0.14560  0.33392  0.79480  Biso   1.000  C
  H52      1.0000 0.12370  0.30940  0.76920  Biso   1.000  H
  C79      1.0000 0.24830  0.37150  0.83960  Biso   1.000  C
  C80      1.0000 0.32660  0.37300  0.84460  Biso   1.000  C
  C81      1.0000 0.41680  0.23185  0.70900  Biso   1.000  C
  H53      1.0000 0.39910  0.23690  0.64080  Biso   1.000  H
  C82      1.0000 0.48050  0.20840  0.72110  Biso   1.000  C
  H54      1.0000 0.50550  0.19830  0.66160  Biso   1.000  H
  C83      1.0000 0.50720  0.20000  0.81800  Biso   1.000  C
  H55      1.0000 0.55090  0.18440  0.82680  Biso   1.000  H
  C84      1.0000 0.46810  0.21501  0.90480  Biso   1.000  C
  C85      1.0000 0.49100  0.20820  0.00970  Biso   1.000  C
  H56      1.0000 0.53280  0.19160  0.02310  Biso   1.000  H
  C86      1.0000 0.45390  0.22500  0.08990  Biso   1.000  C
  H57      1.0000 0.46970  0.21960  0.15890  Biso   1.000  H
  C87      1.0000 0.39130  0.25080  0.07310  Biso   1.000  C
  C88      1.0000 0.35390  0.27130  0.15400  Biso   1.000  C
  H58      1.0000 0.36880  0.26810  0.22420  Biso   1.000  H
  C89      1.0000 0.29530  0.29618  0.12890  Biso   1.000  C
  H59      1.0000 0.27010  0.31080  0.18190  Biso   1.000  H
  C90      1.0000 0.27270  0.29988  0.02550  Biso   1.000  C
  H60      1.0000 0.23090  0.31630  0.01020  Biso   1.000  H
  C91      1.0000 0.36720  0.25699  0.97150  Biso   1.000  C
  C92      1.0000 0.40590  0.23910  0.88620  Biso   1.000  C
  C93      1.0000 0.32280  0.31359  0.56570  Biso   1.000  C
  H61      1.0000 0.35820  0.33200  0.59360  Biso   1.000  H
  C94      1.0000 0.31280  0.31136  0.45990  Biso   1.000  C
  C95      1.0000 0.25910  0.28610  0.41800  Biso   1.000  C
  H62      1.0000 0.25020  0.28560  0.34530  Biso   1.000  H
  C96      1.0000 0.21890  0.26180  0.48490  Biso   1.000  C
  H63      1.0000 0.18210  0.24390  0.45850  Biso   1.000  H
  C97      1.0000 0.23240  0.26345  0.59090  Biso   1.000  C
  C98      1.0000 0.19580  0.23676  0.66710  Biso   1.000  C
  C99      1.0000 0.14520  0.20690  0.64000  Biso   1.000  C
  H64      1.0000 0.12980  0.20400  0.56990  Biso   1.000  H
  C100     1.0000 0.11700  0.18090  0.71660  Biso   1.000  C
  H65      1.0000 0.08330  0.15970  0.69970  Biso   1.000  H
  C101     1.0000 0.13930  0.18700  0.81650  Biso   1.000  C
  C102     1.0000 0.18910  0.21830  0.83940  Biso   1.000  C
  H66      1.0000 0.20320  0.22230  0.90970  Biso   1.000  H
  Ru4      1.0000 0.95403  0.45720  0.56566  Biso   1.000  Ru
  Br7      1.0000 0.96114  0.42250  0.01354  Biso   1.000  Br
  Br8      1.0000 0.82315  0.36543  0.22427  Biso   1.000  Br
  N19      1.0000 0.01640  0.50288  0.63260  Biso   1.000  N
  N20      1.0000 0.05510  0.42845  0.56640  Biso   1.000  N
  N21      1.0000 0.96950  0.48453  0.42340  Biso   1.000  N
  N22      1.0000 0.86130  0.49361  0.55890  Biso   1.000  N
  N23      1.0000 0.89530  0.40948  0.50420  Biso   1.000  N
  N24      1.0000 0.92350  0.42627  0.69780  Biso   1.000  N
  C103     1.0000 0.99680  0.54055  0.66240  Biso   1.000  C
  H67      1.0000 0.94640  0.54790  0.65910  Biso   1.000  H
  C104     1.0000 0.04720  0.56998  0.69870  Biso   1.000  C
  H68      1.0000 0.03070  0.59660  0.71820  Biso   1.000  H
  C105     1.0000 0.11980  0.56030  0.70580  Biso   1.000  C
  H69      1.0000 0.15400  0.58000  0.73080  Biso   1.000  H
  C106     1.0000 0.14380  0.52036  0.67540  Biso   1.000  C
  C107     1.0000 0.21810  0.50740  0.68030  Biso   1.000  C
  H70      1.0000 0.25440  0.52540  0.70730  Biso   1.000  H
  C108     1.0000 0.23760  0.46890  0.64620  Biso   1.000  C
  H71      1.0000 0.28760  0.46090  0.64830  Biso   1.000  H
  C109     1.0000 0.18380  0.44072  0.60750  Biso   1.000  C
  C110     1.0000 0.20130  0.40106  0.57070  Biso   1.000  C
  H72      1.0000 0.25050  0.39150  0.57130  Biso   1.000  H
  C111     1.0000 0.14550  0.37653  0.53380  Biso   1.000  C
  H73      1.0000 0.15610  0.34960  0.50950  Biso   1.000  H
  C112     1.0000 0.07340  0.39122  0.53210  Biso   1.000  C
  H74      1.0000 0.03590  0.37390  0.50530  Biso   1.000  H
  C113     1.0000 0.11030  0.45321  0.60330  Biso   1.000  C
  C114     1.0000 0.08960  0.49321  0.63920  Biso   1.000  C
  C115     1.0000 0.80890  0.49840  0.62880  Biso   1.000  C
  H75      1.0000 0.81170  0.48300  0.69150  Biso   1.000  H
  C116     1.0000 0.74920  0.52510  0.61430  Biso   1.000  C
  H76      1.0000 0.71250  0.52750  0.66640  Biso   1.000  H
  C117     1.0000 0.74420  0.54770  0.52500  Biso   1.000  C
  H77      1.0000 0.70490  0.56640  0.51520  Biso   1.000  H
  C118     1.0000 0.79810  0.54275  0.44780  Biso   1.000  C
  C119     1.0000 0.79710  0.56400  0.35000  Biso   1.000  C
  H78      1.0000 0.75870  0.58290  0.33550  Biso   1.000  H
  C120     1.0000 0.85000  0.55750  0.27810  Biso   1.000  C
  H79      1.0000 0.84720  0.57130  0.21310  Biso   1.000  H
  C121     1.0000 0.91070  0.53020  0.29840  Biso   1.000  C
  C122     1.0000 0.96800  0.52300  0.22750  Biso   1.000  C
  H80      1.0000 0.96800  0.53600  0.16130  Biso   1.000  H
  C123     1.0000 0.02440  0.49680  0.25630  Biso   1.000  C
  H81      1.0000 0.06330  0.49120  0.20940  Biso   1.000  H
  C124     1.0000 0.02360  0.47841  0.35580  Biso   1.000  C
  H82      1.0000 0.06320  0.46100  0.37510  Biso   1.000  H
  C125     1.0000 0.91330  0.51018  0.39500  Biso   1.000  C
  C126     1.0000 0.85570  0.51554  0.46850  Biso   1.000  C
  C127     1.0000 0.94460  0.43530  0.79590  Biso   1.000  C
  H83      1.0000 0.97360  0.45910  0.80780  Biso   1.000  H
  C128     1.0000 0.92520  0.41080  0.87980  Biso   1.000  C
  C129     1.0000 0.88080  0.37630  0.86400  Biso   1.000  C
  H84      1.0000 0.86690  0.35930  0.92060  Biso   1.000  H
  C130     1.0000 0.85740  0.36760  0.76500  Biso   1.000  C
  H85      1.0000 0.82650  0.34460  0.75230  Biso   1.000  H
  C131     1.0000 0.87970  0.39318  0.68250  Biso   1.000  C
  C132     1.0000 0.86070  0.38490  0.57480  Biso   1.000  C
  C133     1.0000 0.81130  0.35420  0.54230  Biso   1.000  C
  H86      1.0000 0.78660  0.33790  0.59250  Biso   1.000  H
  C134     1.0000 0.79880  0.34800  0.44120  Biso   1.000  C
  H87      1.0000 0.76510  0.32760  0.41830  Biso   1.000  H
  C135     1.0000 0.83700  0.37240  0.37100  Biso   1.000  C
  C136     1.0000 0.88430  0.40255  0.40340  Biso   1.000  C
  H88      1.0000 0.90960  0.41870  0.35340  Biso   1.000  H
  Ru5      1.0000 0.79394  0.21119  0.21056  Biso   1.000  Ru
  Br9      1.0000 0.60236  0.34660  0.07766  Biso   1.000  Br
  Br10     1.0000 0.87325  0.15699  0.62710  Biso   1.000  Br
  N25      1.0000 0.86360  0.16139  0.18750  Biso   1.000  N
  N26      1.0000 0.71810  0.16481  0.19340  Biso   1.000  N
  N27      1.0000 0.80750  0.21868  0.05170  Biso   1.000  N
  N28      1.0000 0.87960  0.25250  0.21010  Biso   1.000  N
  N29      1.0000 0.71770  0.25722  0.23310  Biso   1.000  N
  N30      1.0000 0.78270  0.21017  0.37040  Biso   1.000  N
  C137     1.0000 0.93670  0.16048  0.18630  Biso   1.000  C
  H89      1.0000 0.96310  0.18360  0.21190  Biso   1.000  H
  C138     1.0000 0.97580  0.12640  0.14840  Biso   1.000  C
  H90      1.0000 0.02790  0.12690  0.14710  Biso   1.000  H
  C139     1.0000 0.93900  0.09260  0.11340  Biso   1.000  C
  H91      1.0000 0.96540  0.06970  0.08650  Biso   1.000  H
  C140     1.0000 0.86180  0.09158  0.11730  Biso   1.000  C
  C141     1.0000 0.81830  0.05741  0.08460  Biso   1.000  C
  H92      1.0000 0.84180  0.03350  0.05810  Biso   1.000  H
  C142     1.0000 0.74390  0.05830  0.09050  Biso   1.000  C
  H93      1.0000 0.71630  0.03520  0.06790  Biso   1.000  H
  C143     1.0000 0.70640  0.09396  0.13070  Biso   1.000  C
  C144     1.0000 0.62980  0.09667  0.14170  Biso   1.000  C
  H94      1.0000 0.59910  0.07430  0.12230  Biso   1.000  H
  C145     1.0000 0.60050  0.13238  0.18100  Biso   1.000  C
  H95      1.0000 0.54910  0.13430  0.19190  Biso   1.000  H
  C146     1.0000 0.64560  0.16608  0.20520  Biso   1.000  C
  H96      1.0000 0.62370  0.19060  0.23080  Biso   1.000  H
  C147     1.0000 0.74830  0.12850  0.16040  Biso   1.000  C
  C148     1.0000 0.82660  0.12700  0.15540  Biso   1.000  C
  C149     1.0000 0.91680  0.26815  0.29100  Biso   1.000  C
  H97      1.0000 0.89910  0.26310  0.35920  Biso   1.000  H
  C150     1.0000 0.98050  0.29160  0.27890  Biso   1.000  C
  H98      1.0000 0.00550  0.30170  0.33840  Biso   1.000  H
  C151     1.0000 0.00720  0.30000  0.18200  Biso   1.000  C
  H99      1.0000 0.05090  0.31560  0.17320  Biso   1.000  H
  C152     1.0000 0.96810  0.28499  0.09520  Biso   1.000  C
  C153     1.0000 0.99100  0.29180  0.99030  Biso   1.000  C
  H100     1.0000 0.03280  0.30840  0.97690  Biso   1.000  H
  C154     1.0000 0.95390  0.27500  0.91010  Biso   1.000  C
  H101     1.0000 0.96970  0.28040  0.84110  Biso   1.000  H
  C155     1.0000 0.89130  0.24920  0.92690  Biso   1.000  C
  C156     1.0000 0.85390  0.22870  0.84600  Biso   1.000  C
  H102     1.0000 0.86880  0.23190  0.77580  Biso   1.000  H
  C157     1.0000 0.79530  0.20382  0.87110  Biso   1.000  C
  H103     1.0000 0.77010  0.18920  0.81810  Biso   1.000  H
  C158     1.0000 0.77270  0.20012  0.97450  Biso   1.000  C
  H104     1.0000 0.73090  0.18370  0.98980  Biso   1.000  H
  C159     1.0000 0.86720  0.24301  0.02850  Biso   1.000  C
  C160     1.0000 0.90590  0.26090  0.11380  Biso   1.000  C
  C161     1.0000 0.82280  0.18641  0.43430  Biso   1.000  C
  H105     1.0000 0.85820  0.16800  0.40640  Biso   1.000  H
  C162     1.0000 0.81280  0.18864  0.54010  Biso   1.000  C
  C163     1.0000 0.75910  0.21390  0.58200  Biso   1.000  C
  H106     1.0000 0.75020  0.21440  0.65470  Biso   1.000  H
  C164     1.0000 0.71890  0.23820  0.51510  Biso   1.000  C
  H107     1.0000 0.68210  0.25610  0.54150  Biso   1.000  H
  C165     1.0000 0.73240  0.23655  0.40910  Biso   1.000  C
  C166     1.0000 0.69580  0.26324  0.33290  Biso   1.000  C
  C167     1.0000 0.64520  0.29310  0.36000  Biso   1.000  C
  H108     1.0000 0.62980  0.29600  0.43010  Biso   1.000  H
  C168     1.0000 0.61700  0.31910  0.28340  Biso   1.000  C
  H109     1.0000 0.58330  0.34030  0.30030  Biso   1.000  H
  C169     1.0000 0.63930  0.31300  0.18350  Biso   1.000  C
  C170     1.0000 0.68910  0.28170  0.16060  Biso   1.000  C
  H110     1.0000 0.70320  0.27770  0.09030  Biso   1.000  H
  Ru6      1.0000 0.45403  0.04280  0.43434  Biso   1.000  Ru
  Br11     1.0000 0.46114  0.07750  0.98646  Biso   1.000  Br
  Br12     1.0000 0.32315  0.13457  0.77573  Biso   1.000  Br
  N31      1.0000 0.51640  0.99712  0.36740  Biso   1.000  N
  N32      1.0000 0.55510  0.07155  0.43360  Biso   1.000  N
  N33      1.0000 0.46950  0.01547  0.57660  Biso   1.000  N
  N34      1.0000 0.36130  0.00639  0.44110  Biso   1.000  N
  N35      1.0000 0.39530  0.09052  0.49580  Biso   1.000  N
  N36      1.0000 0.42350  0.07373  0.30220  Biso   1.000  N
  C171     1.0000 0.49680  0.95945  0.33760  Biso   1.000  C
  H111     1.0000 0.44640  0.95210  0.34090  Biso   1.000  H
  C172     1.0000 0.54720  0.93002  0.30130  Biso   1.000  C
  H112     1.0000 0.53070  0.90340  0.28180  Biso   1.000  H
  C173     1.0000 0.61980  0.93970  0.29420  Biso   1.000  C
  H113     1.0000 0.65400  0.92000  0.26920  Biso   1.000  H
  C174     1.0000 0.64380  0.97964  0.32460  Biso   1.000  C
  C175     1.0000 0.71810  0.99260  0.31970  Biso   1.000  C
  H114     1.0000 0.75440  0.97460  0.29270  Biso   1.000  H
  C176     1.0000 0.73760  0.03110  0.35380  Biso   1.000  C
  H115     1.0000 0.78760  0.03910  0.35170  Biso   1.000  H
  C177     1.0000 0.68380  0.05928  0.39250  Biso   1.000  C
  C178     1.0000 0.70130  0.09894  0.42930  Biso   1.000  C
  H116     1.0000 0.75050  0.10850  0.42870  Biso   1.000  H
  C179     1.0000 0.64550  0.12347  0.46620  Biso   1.000  C
  H117     1.0000 0.65610  0.15040  0.49050  Biso   1.000  H
  C180     1.0000 0.57340  0.10878  0.46790  Biso   1.000  C
  H118     1.0000 0.53590  0.12610  0.49470  Biso   1.000  H
  C181     1.0000 0.61030  0.04679  0.39670  Biso   1.000  C
  C182     1.0000 0.58960  0.00679  0.36080  Biso   1.000  C
  C183     1.0000 0.30890  0.00160  0.37120  Biso   1.000  C
  H119     1.0000 0.31170  0.01700  0.30850  Biso   1.000  H
  C184     1.0000 0.24920  0.97490  0.38570  Biso   1.000  C
  H120     1.0000 0.21250  0.97250  0.33360  Biso   1.000  H
  C185     1.0000 0.24420  0.95230  0.47500  Biso   1.000  C
  H121     1.0000 0.20490  0.93360  0.48480  Biso   1.000  H
  C186     1.0000 0.29810  0.95725  0.55220  Biso   1.000  C
  C187     1.0000 0.29710  0.93600  0.65000  Biso   1.000  C
  H122     1.0000 0.25870  0.91710  0.66450  Biso   1.000  H
  C188     1.0000 0.35000  0.94250  0.72190  Biso   1.000  C
  H123     1.0000 0.34720  0.92870  0.78690  Biso   1.000  H
  C189     1.0000 0.41070  0.96980  0.70160  Biso   1.000  C
  C190     1.0000 0.46800  0.97700  0.77250  Biso   1.000  C
  H124     1.0000 0.46800  0.96400  0.83870  Biso   1.000  H
  C191     1.0000 0.52440  0.00320  0.74370  Biso   1.000  C
  H125     1.0000 0.56330  0.00880  0.79060  Biso   1.000  H
  C192     1.0000 0.52360  0.02159  0.64420  Biso   1.000  C
  H126     1.0000 0.56320  0.03900  0.62490  Biso   1.000  H
  C193     1.0000 0.41330  0.98982  0.60500  Biso   1.000  C
  C194     1.0000 0.35570  0.98446  0.53150  Biso   1.000  C
  C195     1.0000 0.44460  0.06470  0.20410  Biso   1.000  C
  H127     1.0000 0.47360  0.04090  0.19220  Biso   1.000  H
  C196     1.0000 0.42520  0.08920  0.12020  Biso   1.000  C
  C197     1.0000 0.38080  0.12370  0.13600  Biso   1.000  C
  H128     1.0000 0.36690  0.14070  0.07940  Biso   1.000  H
  C198     1.0000 0.35740  0.13240  0.23500  Biso   1.000  C
  H129     1.0000 0.32650  0.15540  0.24770  Biso   1.000  H
  C199     1.0000 0.37970  0.10682  0.31750  Biso   1.000  C
  C200     1.0000 0.36070  0.11510  0.42520  Biso   1.000  C
  C201     1.0000 0.31130  0.14580  0.45770  Biso   1.000  C
  H130     1.0000 0.28660  0.16210  0.40750  Biso   1.000  H
  C202     1.0000 0.29880  0.15200  0.55880  Biso   1.000  C
  H131     1.0000 0.26510  0.17240  0.58170  Biso   1.000  H
  C203     1.0000 0.33700  0.12760  0.62900  Biso   1.000  C
  C204     1.0000 0.38430  0.09745  0.59660  Biso   1.000  C
  H132     1.0000 0.40960  0.08130  0.64660  Biso   1.000  H
  Ru7      1.0000 0.70606  0.78881  0.71056  Biso   1.000  Ru
  Br13     1.0000 0.89764  0.65340  0.57766  Biso   1.000  Br
  Br14     1.0000 0.62675  0.84301  0.12710  Biso   1.000  Br
  N37      1.0000 0.63640  0.83861  0.68750  Biso   1.000  N
  N38      1.0000 0.78190  0.83519  0.69340  Biso   1.000  N
  N39      1.0000 0.69250  0.78132  0.55170  Biso   1.000  N
  N40      1.0000 0.62040  0.74750  0.71010  Biso   1.000  N
  N41      1.0000 0.78230  0.74278  0.73310  Biso   1.000  N
  N42      1.0000 0.71730  0.78983  0.87040  Biso   1.000  N
  C205     1.0000 0.56330  0.83952  0.68630  Biso   1.000  C
  H133     1.0000 0.53690  0.81640  0.71190  Biso   1.000  H
  C206     1.0000 0.52420  0.87360  0.64840  Biso   1.000  C
  H134     1.0000 0.47210  0.87310  0.64710  Biso   1.000  H
  C207     1.0000 0.56100  0.90740  0.61340  Biso   1.000  C
  H135     1.0000 0.53460  0.93030  0.58650  Biso   1.000  H
  C208     1.0000 0.63820  0.90842  0.61730  Biso   1.000  C
  C209     1.0000 0.68170  0.94259  0.58460  Biso   1.000  C
  H136     1.0000 0.65820  0.96650  0.55810  Biso   1.000  H
  C210     1.0000 0.75610  0.94170  0.59050  Biso   1.000  C
  H137     1.0000 0.78370  0.96480  0.56790  Biso   1.000  H
  C211     1.0000 0.79360  0.90604  0.63070  Biso   1.000  C
  C212     1.0000 0.87020  0.90333  0.64170  Biso   1.000  C
  H138     1.0000 0.90090  0.92570  0.62230  Biso   1.000  H
  C213     1.0000 0.89950  0.86762  0.68100  Biso   1.000  C
  H139     1.0000 0.95090  0.86570  0.69190  Biso   1.000  H
  C214     1.0000 0.85440  0.83392  0.70520  Biso   1.000  C
  H140     1.0000 0.87630  0.80940  0.73080  Biso   1.000  H
  C215     1.0000 0.75170  0.87150  0.66040  Biso   1.000  C
  C216     1.0000 0.67340  0.87300  0.65540  Biso   1.000  C
  C217     1.0000 0.58320  0.73185  0.79100  Biso   1.000  C
  H141     1.0000 0.60090  0.73690  0.85920  Biso   1.000  H
  C218     1.0000 0.51950  0.70840  0.77890  Biso   1.000  C
  H142     1.0000 0.49450  0.69830  0.83840  Biso   1.000  H
  C219     1.0000 0.49280  0.70000  0.68200  Biso   1.000  C
  H143     1.0000 0.44910  0.68440  0.67320  Biso   1.000  H
  C220     1.0000 0.53190  0.71501  0.59520  Biso   1.000  C
  C221     1.0000 0.50900  0.70820  0.49030  Biso   1.000  C
  H144     1.0000 0.46720  0.69160  0.47690  Biso   1.000  H
  C222     1.0000 0.54610  0.72500  0.41010  Biso   1.000  C
  H145     1.0000 0.53030  0.71960  0.34110  Biso   1.000  H
  C223     1.0000 0.60870  0.75080  0.42690  Biso   1.000  C
  C224     1.0000 0.64610  0.77130  0.34600  Biso   1.000  C
  H146     1.0000 0.63120  0.76810  0.27580  Biso   1.000  H
  C225     1.0000 0.70470  0.79618  0.37110  Biso   1.000  C
  H147     1.0000 0.72990  0.81080  0.31810  Biso   1.000  H
  C226     1.0000 0.72730  0.79988  0.47450  Biso   1.000  C
  H148     1.0000 0.76910  0.81630  0.48980  Biso   1.000  H
  C227     1.0000 0.63280  0.75699  0.52850  Biso   1.000  C
  C228     1.0000 0.59410  0.73910  0.61380  Biso   1.000  C
  C229     1.0000 0.67720  0.81359  0.93430  Biso   1.000  C
  H149     1.0000 0.64180  0.83200  0.90640  Biso   1.000  H
  C230     1.0000 0.68720  0.81136  0.04010  Biso   1.000  C
  C231     1.0000 0.74090  0.78610  0.08200  Biso   1.000  C
  H150     1.0000 0.74980  0.78560  0.15470  Biso   1.000  H
  C232     1.0000 0.78110  0.76180  0.01510  Biso   1.000  C
  H151     1.0000 0.81790  0.74390  0.04150  Biso   1.000  H
  C233     1.0000 0.76760  0.76345  0.90910  Biso   1.000  C
  C234     1.0000 0.80420  0.73676  0.83290  Biso   1.000  C
  C235     1.0000 0.85480  0.70690  0.86000  Biso   1.000  C
  H152     1.0000 0.87020  0.70400  0.93010  Biso   1.000  H
  C236     1.0000 0.88300  0.68090  0.78340  Biso   1.000  C
  H153     1.0000 0.91670  0.65970  0.80030  Biso   1.000  H
  C237     1.0000 0.86070  0.68700  0.68350  Biso   1.000  C
  C238     1.0000 0.81090  0.71830  0.66060  Biso   1.000  C
  H154     1.0000 0.79680  0.72230  0.59030  Biso   1.000  H
  Ru8      1.0000 0.04597  0.95720  0.93434  Biso   1.000  Ru
  Br15     1.0000 0.03886  0.92250  0.48646  Biso   1.000  Br
  Br16     1.0000 0.17685  0.86543  0.27573  Biso   1.000  Br
  N43      1.0000 0.98360  0.00288  0.86740  Biso   1.000  N
  N44      1.0000 0.94490  0.92845  0.93360  Biso   1.000  N
  N45      1.0000 0.03050  0.98453  0.07660  Biso   1.000  N
  N46      1.0000 0.13870  0.99361  0.94110  Biso   1.000  N
  N47      1.0000 0.10470  0.90948  0.99580  Biso   1.000  N
  N48      1.0000 0.07650  0.92627  0.80220  Biso   1.000  N
  C239     1.0000 0.00320  0.04055  0.83760  Biso   1.000  C
  H155     1.0000 0.05360  0.04790  0.84090  Biso   1.000  H
  C240     1.0000 0.95280  0.06998  0.80130  Biso   1.000  C
  H156     1.0000 0.96930  0.09660  0.78180  Biso   1.000  H
  C241     1.0000 0.88020  0.06030  0.79420  Biso   1.000  C
  H157     1.0000 0.84600  0.08000  0.76920  Biso   1.000  H
  C242     1.0000 0.85620  0.02036  0.82460  Biso   1.000  C
  C243     1.0000 0.78190  0.00740  0.81970  Biso   1.000  C
  H158     1.0000 0.74560  0.02540  0.79270  Biso   1.000  H
  C244     1.0000 0.76240  0.96890  0.85380  Biso   1.000  C
  H159     1.0000 0.71240  0.96090  0.85170  Biso   1.000  H
  C245     1.0000 0.81620  0.94072  0.89250  Biso   1.000  C
  C246     1.0000 0.79870  0.90106  0.92930  Biso   1.000  C
  H160     1.0000 0.74950  0.89150  0.92870  Biso   1.000  H
  C247     1.0000 0.85450  0.87653  0.96620  Biso   1.000  C
  H161     1.0000 0.84390  0.84960  0.99050  Biso   1.000  H
  C248     1.0000 0.92660  0.89122  0.96790  Biso   1.000  C
  H162     1.0000 0.96410  0.87390  0.99470  Biso   1.000  H
  C249     1.0000 0.88970  0.95321  0.89670  Biso   1.000  C
  C250     1.0000 0.91040  0.99321  0.86080  Biso   1.000  C
  C251     1.0000 0.19110  0.99840  0.87120  Biso   1.000  C
  H163     1.0000 0.18830  0.98300  0.80850  Biso   1.000  H
  C252     1.0000 0.25080  0.02510  0.88570  Biso   1.000  C
  H164     1.0000 0.28750  0.02750  0.83360  Biso   1.000  H
  C253     1.0000 0.25580  0.04770  0.97500  Biso   1.000  C
  H165     1.0000 0.29510  0.06640  0.98480  Biso   1.000  H
  C254     1.0000 0.20190  0.04275  0.05220  Biso   1.000  C
  C255     1.0000 0.20290  0.06400  0.15000  Biso   1.000  C
  H166     1.0000 0.24130  0.08290  0.16450  Biso   1.000  H
  C256     1.0000 0.15000  0.05750  0.22190  Biso   1.000  C
  H167     1.0000 0.15280  0.07130  0.28690  Biso   1.000  H
  C257     1.0000 0.08930  0.03020  0.20160  Biso   1.000  C
  C258     1.0000 0.03200  0.02300  0.27250  Biso   1.000  C
  H168     1.0000 0.03200  0.03600  0.33870  Biso   1.000  H
  C259     1.0000 0.97560  0.99680  0.24370  Biso   1.000  C
  H169     1.0000 0.93670  0.99120  0.29060  Biso   1.000  H
  C260     1.0000 0.97640  0.97841  0.14420  Biso   1.000  C
  H170     1.0000 0.93680  0.96100  0.12490  Biso   1.000  H
  C261     1.0000 0.08670  0.01018  0.10500  Biso   1.000  C
  C262     1.0000 0.14430  0.01554  0.03150  Biso   1.000  C
  C263     1.0000 0.05540  0.93530  0.70410  Biso   1.000  C
  H171     1.0000 0.02640  0.95910  0.69220  Biso   1.000  H
  C264     1.0000 0.07480  0.91080  0.62020  Biso   1.000  C
  C265     1.0000 0.11920  0.87630  0.63600  Biso   1.000  C
  H172     1.0000 0.13310  0.85930  0.57940  Biso   1.000  H
  C266     1.0000 0.14260  0.86760  0.73500  Biso   1.000  C
  H173     1.0000 0.17350  0.84460  0.74770  Biso   1.000  H
  C267     1.0000 0.12030  0.89318  0.81750  Biso   1.000  C
  C268     1.0000 0.13930  0.88490  0.92520  Biso   1.000  C
  C269     1.0000 0.18870  0.85420  0.95770  Biso   1.000  C
  H174     1.0000 0.21340  0.83790  0.90750  Biso   1.000  H
  C270     1.0000 0.20120  0.84800  0.05880  Biso   1.000  C
  H175     1.0000 0.23490  0.82760  0.08170  Biso   1.000  H
  C271     1.0000 0.16300  0.87240  0.12900  Biso   1.000  C
  C272     1.0000 0.11570  0.90255  0.09660  Biso   1.000  C
  H176     1.0000 0.09040  0.91870  0.14660  Biso   1.000  H
