data_image0
_cell_length_a       15.2032
_cell_length_b       15.2032
_cell_length_c       46.09
_cell_angle_alpha    90
_cell_angle_beta     90
_cell_angle_gamma    120

_symmetry_space_group_name_H-M    "P 1"
_symmetry_int_tables_number       1

loop_
  _symmetry_equiv_pos_as_xyz
  'x, y, z'

loop_
  _atom_site_label
  _atom_site_occupancy
  _atom_site_fract_x
  _atom_site_fract_y
  _atom_site_fract_z
  _atom_site_thermal_displace_type
  _atom_site_B_iso_or_equiv
  _atom_site_type_symbol
  O1       1.0000 0.83350  0.98900  0.29967  Biso   1.000  O
  C1       1.0000 0.72650  0.78610  0.24839  Biso   1.000  C
  H1       1.0000 0.74660  0.74210  0.25690  Biso   1.000  H
  C2       1.0000 0.67310  0.75690  0.22251  Biso   1.000  C
  H2       1.0000 0.65400  0.69330  0.21370  Biso   1.000  H
  H3       1.0000 0.52940  0.74190  0.18500  Biso   1.000  H
  H4       1.0000 0.62660  0.78000  0.16900  Biso   1.000  H
  H5       1.0000 0.58710  0.84960  0.17550  Biso   1.000  H
  O2       1.0000 0.83210  0.98840  0.36085  Biso   1.000  O
  C3       1.0000 0.70640  0.77760  0.40850  Biso   1.000  C
  H6       1.0000 0.72850  0.73420  0.40060  Biso   1.000  H
  C4       1.0000 0.64450  0.74830  0.43240  Biso   1.000  C
  H7       1.0000 0.62610  0.68470  0.44110  Biso   1.000  H
  H8       1.0000 0.48230  0.71070  0.46260  Biso   1.000  H
  H9       1.0000 0.52190  0.81730  0.47210  Biso   1.000  H
  H10      1.0000 0.56840  0.75830  0.48330  Biso   1.000  H
  O3       1.0000 0.01100  0.84450  0.29967  Biso   1.000  O
  C5       1.0000 0.21390  0.94040  0.24839  Biso   1.000  C
  H11      1.0000 0.25790  0.00450  0.25690  Biso   1.000  H
  C6       1.0000 0.24310  0.91620  0.22251  Biso   1.000  C
  H12      1.0000 0.30670  0.96070  0.21370  Biso   1.000  H
  H13      1.0000 0.25810  0.78750  0.18500  Biso   1.000  H
  H14      1.0000 0.22000  0.84660  0.16900  Biso   1.000  H
  H15      1.0000 0.15040  0.73750  0.17550  Biso   1.000  H
  O4       1.0000 0.01160  0.84370  0.36085  Biso   1.000  O
  C7       1.0000 0.22240  0.92880  0.40850  Biso   1.000  C
  H16      1.0000 0.26580  0.99430  0.40060  Biso   1.000  H
  C8       1.0000 0.25170  0.89620  0.43240  Biso   1.000  C
  H17      1.0000 0.31530  0.94140  0.44110  Biso   1.000  H
  H18      1.0000 0.28930  0.77160  0.46260  Biso   1.000  H
  H19      1.0000 0.18270  0.70460  0.47210  Biso   1.000  H
  H20      1.0000 0.24170  0.81010  0.48330  Biso   1.000  H
  O5       1.0000 0.15550  0.16650  0.29967  Biso   1.000  O
  C9       1.0000 0.05960  0.27350  0.24839  Biso   1.000  C
  H21      1.0000 0.99550  0.25340  0.25690  Biso   1.000  H
  C10      1.0000 0.08380  0.32690  0.22251  Biso   1.000  C
  H22      1.0000 0.03930  0.34600  0.21370  Biso   1.000  H
  H23      1.0000 0.21250  0.47060  0.18500  Biso   1.000  H
  H24      1.0000 0.15340  0.37340  0.16900  Biso   1.000  H
  H25      1.0000 0.26250  0.41290  0.17550  Biso   1.000  H
  O6       1.0000 0.15630  0.16790  0.36085  Biso   1.000  O
  C11      1.0000 0.07120  0.29360  0.40850  Biso   1.000  C
  H26      1.0000 0.00570  0.27150  0.40060  Biso   1.000  H
  C12      1.0000 0.10380  0.35550  0.43240  Biso   1.000  C
  H27      1.0000 0.05860  0.37390  0.44110  Biso   1.000  H
  H28      1.0000 0.22840  0.51770  0.46260  Biso   1.000  H
  H29      1.0000 0.29540  0.47810  0.47210  Biso   1.000  H
  H30      1.0000 0.18990  0.43160  0.48330  Biso   1.000  H
  O7       1.0000 0.01100  0.16650  0.29967  Biso   1.000  O
  C13      1.0000 0.21390  0.27350  0.24839  Biso   1.000  C
  H31      1.0000 0.25790  0.25340  0.25690  Biso   1.000  H
  C14      1.0000 0.24310  0.32690  0.22251  Biso   1.000  C
  H32      1.0000 0.30670  0.34600  0.21370  Biso   1.000  H
  H33      1.0000 0.25810  0.47060  0.18500  Biso   1.000  H
  H34      1.0000 0.22000  0.37340  0.16900  Biso   1.000  H
  H35      1.0000 0.15040  0.41290  0.17550  Biso   1.000  H
  O8       1.0000 0.01160  0.16790  0.36085  Biso   1.000  O
  C15      1.0000 0.22240  0.29360  0.40850  Biso   1.000  C
  H36      1.0000 0.26580  0.27150  0.40060  Biso   1.000  H
  C16      1.0000 0.25170  0.35550  0.43240  Biso   1.000  C
  H37      1.0000 0.31530  0.37390  0.44110  Biso   1.000  H
  H38      1.0000 0.28930  0.51770  0.46260  Biso   1.000  H
  H39      1.0000 0.18270  0.47810  0.47210  Biso   1.000  H
  H40      1.0000 0.24170  0.43160  0.48330  Biso   1.000  H
  O9       1.0000 0.15550  0.98900  0.29967  Biso   1.000  O
  C17      1.0000 0.05960  0.78610  0.24839  Biso   1.000  C
  H41      1.0000 0.99550  0.74210  0.25690  Biso   1.000  H
  C18      1.0000 0.08380  0.75690  0.22251  Biso   1.000  C
  H42      1.0000 0.03930  0.69330  0.21370  Biso   1.000  H
  H43      1.0000 0.21250  0.74190  0.18500  Biso   1.000  H
  H44      1.0000 0.15340  0.78000  0.16900  Biso   1.000  H
  H45      1.0000 0.26250  0.84960  0.17550  Biso   1.000  H
  O10      1.0000 0.15630  0.98840  0.36085  Biso   1.000  O
  C19      1.0000 0.07120  0.77760  0.40850  Biso   1.000  C
  H46      1.0000 0.00570  0.73420  0.40060  Biso   1.000  H
  C20      1.0000 0.10380  0.74830  0.43240  Biso   1.000  C
  H47      1.0000 0.05860  0.68470  0.44110  Biso   1.000  H
  H48      1.0000 0.22840  0.71070  0.46260  Biso   1.000  H
  H49      1.0000 0.29540  0.81730  0.47210  Biso   1.000  H
  H50      1.0000 0.18990  0.75830  0.48330  Biso   1.000  H
  O11      1.0000 0.83350  0.84450  0.29967  Biso   1.000  O
  C21      1.0000 0.72650  0.94040  0.24839  Biso   1.000  C
  H51      1.0000 0.74660  0.00450  0.25690  Biso   1.000  H
  C22      1.0000 0.67310  0.91620  0.22251  Biso   1.000  C
  H52      1.0000 0.65400  0.96070  0.21370  Biso   1.000  H
  H53      1.0000 0.52940  0.78750  0.18500  Biso   1.000  H
  H54      1.0000 0.62660  0.84660  0.16900  Biso   1.000  H
  H55      1.0000 0.58710  0.73750  0.17550  Biso   1.000  H
  O12      1.0000 0.83210  0.84370  0.36085  Biso   1.000  O
  C23      1.0000 0.70640  0.92880  0.40850  Biso   1.000  C
  H56      1.0000 0.72850  0.99430  0.40060  Biso   1.000  H
  C24      1.0000 0.64450  0.89620  0.43240  Biso   1.000  C
  H57      1.0000 0.62610  0.94140  0.44110  Biso   1.000  H
  H58      1.0000 0.48230  0.77160  0.46260  Biso   1.000  H
  H59      1.0000 0.52190  0.70460  0.47210  Biso   1.000  H
  H60      1.0000 0.56840  0.81010  0.48330  Biso   1.000  H
  Cr1      1.0000 0.92791  0.07209  0.33046  Biso   1.000  Cr
  Cr2      1.0000 0.92791  0.85582  0.33046  Biso   1.000  Cr
  Cr3      1.0000 0.14418  0.07209  0.33046  Biso   1.000  Cr
  O13      1.0000 0.00000  0.00000  0.33007  Biso   1.000  O
  C25      1.0000 0.81010  0.90505  0.28909  Biso   1.000  C
  C26      1.0000 0.75190  0.87595  0.26240  Biso   1.000  C
  C27      1.0000 0.64950  0.82475  0.21040  Biso   1.000  C
  N1       1.0000 0.59260  0.79630  0.18221  Biso   1.000  N
  C28      1.0000 0.80630  0.90315  0.37045  Biso   1.000  C
  C29      1.0000 0.73500  0.86750  0.39647  Biso   1.000  C
  C30      1.0000 0.60870  0.80435  0.44405  Biso   1.000  C
  N2       1.0000 0.53910  0.76955  0.46765  Biso   1.000  N
  C31      1.0000 0.09495  0.90505  0.28909  Biso   1.000  C
  C32      1.0000 0.12405  0.87595  0.26240  Biso   1.000  C
  C33      1.0000 0.17525  0.82475  0.21040  Biso   1.000  C
  N3       1.0000 0.20370  0.79630  0.18221  Biso   1.000  N
  C34      1.0000 0.09685  0.90315  0.37045  Biso   1.000  C
  C35      1.0000 0.13250  0.86750  0.39647  Biso   1.000  C
  C36      1.0000 0.19565  0.80435  0.44405  Biso   1.000  C
  N4       1.0000 0.23045  0.76955  0.46765  Biso   1.000  N
  C37      1.0000 0.09495  0.18990  0.28909  Biso   1.000  C
  C38      1.0000 0.12405  0.24810  0.26240  Biso   1.000  C
  C39      1.0000 0.17525  0.35050  0.21040  Biso   1.000  C
  N5       1.0000 0.20370  0.40740  0.18221  Biso   1.000  N
  C40      1.0000 0.09685  0.19370  0.37045  Biso   1.000  C
  C41      1.0000 0.13250  0.26500  0.39647  Biso   1.000  C
  C42      1.0000 0.19565  0.39130  0.44405  Biso   1.000  C
  N6       1.0000 0.23045  0.46090  0.46765  Biso   1.000  N
  O14      1.0000 0.50017  0.32233  0.63300  Biso   1.000  O
  C43      1.0000 0.39317  0.11943  0.58172  Biso   1.000  C
  H61      1.0000 0.41327  0.07543  0.59023  Biso   1.000  H
  C44      1.0000 0.33977  0.09023  0.55584  Biso   1.000  C
  H62      1.0000 0.32067  0.02663  0.54703  Biso   1.000  H
  H63      1.0000 0.19607  0.07523  0.51833  Biso   1.000  H
  H64      1.0000 0.29327  0.11333  0.50233  Biso   1.000  H
  H65      1.0000 0.25377  0.18293  0.50883  Biso   1.000  H
  O15      1.0000 0.49877  0.32173  0.69418  Biso   1.000  O
  C45      1.0000 0.37307  0.11093  0.74183  Biso   1.000  C
  H66      1.0000 0.39517  0.06753  0.73393  Biso   1.000  H
  C46      1.0000 0.31117  0.08163  0.76573  Biso   1.000  C
  H67      1.0000 0.29277  0.01803  0.77443  Biso   1.000  H
  H68      1.0000 0.14897  0.04403  0.79593  Biso   1.000  H
  H69      1.0000 0.18857  0.15063  0.80543  Biso   1.000  H
  H70      1.0000 0.23507  0.09163  0.81663  Biso   1.000  H
  O16      1.0000 0.67767  0.17783  0.63300  Biso   1.000  O
  C47      1.0000 0.88057  0.27373  0.58172  Biso   1.000  C
  H71      1.0000 0.92457  0.33783  0.59023  Biso   1.000  H
  C48      1.0000 0.90977  0.24953  0.55584  Biso   1.000  C
  H72      1.0000 0.97337  0.29403  0.54703  Biso   1.000  H
  H73      1.0000 0.92477  0.12083  0.51833  Biso   1.000  H
  H74      1.0000 0.88667  0.17993  0.50233  Biso   1.000  H
  H75      1.0000 0.81707  0.07083  0.50883  Biso   1.000  H
  O17      1.0000 0.67827  0.17703  0.69418  Biso   1.000  O
  C49      1.0000 0.88907  0.26213  0.74183  Biso   1.000  C
  H76      1.0000 0.93247  0.32763  0.73393  Biso   1.000  H
  C50      1.0000 0.91837  0.22953  0.76573  Biso   1.000  C
  H77      1.0000 0.98197  0.27473  0.77443  Biso   1.000  H
  H78      1.0000 0.95597  0.10493  0.79593  Biso   1.000  H
  H79      1.0000 0.84937  0.03793  0.80543  Biso   1.000  H
  H80      1.0000 0.90837  0.14343  0.81663  Biso   1.000  H
  O18      1.0000 0.82217  0.49983  0.63300  Biso   1.000  O
  C51      1.0000 0.72627  0.60683  0.58172  Biso   1.000  C
  H81      1.0000 0.66217  0.58673  0.59023  Biso   1.000  H
  C52      1.0000 0.75047  0.66023  0.55584  Biso   1.000  C
  H82      1.0000 0.70597  0.67933  0.54703  Biso   1.000  H
  H83      1.0000 0.87917  0.80393  0.51833  Biso   1.000  H
  H84      1.0000 0.82007  0.70673  0.50233  Biso   1.000  H
  H85      1.0000 0.92917  0.74623  0.50883  Biso   1.000  H
  O19      1.0000 0.82297  0.50123  0.69418  Biso   1.000  O
  C53      1.0000 0.73787  0.62693  0.74183  Biso   1.000  C
  H86      1.0000 0.67237  0.60483  0.73393  Biso   1.000  H
  C54      1.0000 0.77047  0.68883  0.76573  Biso   1.000  C
  H87      1.0000 0.72527  0.70723  0.77443  Biso   1.000  H
  H88      1.0000 0.89507  0.85103  0.79593  Biso   1.000  H
  H89      1.0000 0.96207  0.81143  0.80543  Biso   1.000  H
  H90      1.0000 0.85657  0.76493  0.81663  Biso   1.000  H
  O20      1.0000 0.67767  0.49983  0.63300  Biso   1.000  O
  C55      1.0000 0.88057  0.60683  0.58172  Biso   1.000  C
  H91      1.0000 0.92457  0.58673  0.59023  Biso   1.000  H
  C56      1.0000 0.90977  0.66023  0.55584  Biso   1.000  C
  H92      1.0000 0.97337  0.67933  0.54703  Biso   1.000  H
  H93      1.0000 0.92477  0.80393  0.51833  Biso   1.000  H
  H94      1.0000 0.88667  0.70673  0.50233  Biso   1.000  H
  H95      1.0000 0.81707  0.74623  0.50883  Biso   1.000  H
  O21      1.0000 0.67827  0.50123  0.69418  Biso   1.000  O
  C57      1.0000 0.88907  0.62693  0.74183  Biso   1.000  C
  H96      1.0000 0.93247  0.60483  0.73393  Biso   1.000  H
  C58      1.0000 0.91837  0.68883  0.76573  Biso   1.000  C
  H97      1.0000 0.98197  0.70723  0.77443  Biso   1.000  H
  H98      1.0000 0.95597  0.85103  0.79593  Biso   1.000  H
  H99      1.0000 0.84937  0.81143  0.80543  Biso   1.000  H
  H100     1.0000 0.90837  0.76493  0.81663  Biso   1.000  H
  O22      1.0000 0.82217  0.32233  0.63300  Biso   1.000  O
  C59      1.0000 0.72627  0.11943  0.58172  Biso   1.000  C
  H101     1.0000 0.66217  0.07543  0.59023  Biso   1.000  H
  C60      1.0000 0.75047  0.09023  0.55584  Biso   1.000  C
  H102     1.0000 0.70597  0.02663  0.54703  Biso   1.000  H
  H103     1.0000 0.87917  0.07523  0.51833  Biso   1.000  H
  H104     1.0000 0.82007  0.11333  0.50233  Biso   1.000  H
  H105     1.0000 0.92917  0.18293  0.50883  Biso   1.000  H
  O23      1.0000 0.82297  0.32173  0.69418  Biso   1.000  O
  C61      1.0000 0.73787  0.11093  0.74183  Biso   1.000  C
  H106     1.0000 0.67237  0.06753  0.73393  Biso   1.000  H
  C62      1.0000 0.77047  0.08163  0.76573  Biso   1.000  C
  H107     1.0000 0.72527  0.01803  0.77443  Biso   1.000  H
  H108     1.0000 0.89507  0.04403  0.79593  Biso   1.000  H
  H109     1.0000 0.96207  0.15063  0.80543  Biso   1.000  H
  H110     1.0000 0.85657  0.09163  0.81663  Biso   1.000  H
  O24      1.0000 0.50017  0.17783  0.63300  Biso   1.000  O
  C63      1.0000 0.39317  0.27373  0.58172  Biso   1.000  C
  H111     1.0000 0.41327  0.33783  0.59023  Biso   1.000  H
  C64      1.0000 0.33977  0.24953  0.55584  Biso   1.000  C
  H112     1.0000 0.32067  0.29403  0.54703  Biso   1.000  H
  H113     1.0000 0.19607  0.12083  0.51833  Biso   1.000  H
  H114     1.0000 0.29327  0.17993  0.50233  Biso   1.000  H
  H115     1.0000 0.25377  0.07083  0.50883  Biso   1.000  H
  O25      1.0000 0.49877  0.17703  0.69418  Biso   1.000  O
  C65      1.0000 0.37307  0.26213  0.74183  Biso   1.000  C
  H116     1.0000 0.39517  0.32763  0.73393  Biso   1.000  H
  C66      1.0000 0.31117  0.22953  0.76573  Biso   1.000  C
  H117     1.0000 0.29277  0.27473  0.77443  Biso   1.000  H
  H118     1.0000 0.14897  0.10493  0.79593  Biso   1.000  H
  H119     1.0000 0.18857  0.03793  0.80543  Biso   1.000  H
  H120     1.0000 0.23507  0.14343  0.81663  Biso   1.000  H
  Cr4      1.0000 0.59458  0.40542  0.66379  Biso   1.000  Cr
  Cr5      1.0000 0.59458  0.18915  0.66379  Biso   1.000  Cr
  Cr6      1.0000 0.81085  0.40542  0.66379  Biso   1.000  Cr
  O26      1.0000 0.66667  0.33333  0.66340  Biso   1.000  O
  C67      1.0000 0.47677  0.23838  0.62242  Biso   1.000  C
  C68      1.0000 0.41857  0.20928  0.59573  Biso   1.000  C
  C69      1.0000 0.31617  0.15808  0.54373  Biso   1.000  C
  N7       1.0000 0.25927  0.12963  0.51554  Biso   1.000  N
  C70      1.0000 0.47297  0.23648  0.70378  Biso   1.000  C
  C71      1.0000 0.40167  0.20083  0.72980  Biso   1.000  C
  C72      1.0000 0.27537  0.13768  0.77738  Biso   1.000  C
  N8       1.0000 0.20577  0.10288  0.80098  Biso   1.000  N
  C73      1.0000 0.76162  0.23838  0.62242  Biso   1.000  C
  C74      1.0000 0.79072  0.20928  0.59573  Biso   1.000  C
  C75      1.0000 0.84192  0.15808  0.54373  Biso   1.000  C
  N9       1.0000 0.87037  0.12963  0.51554  Biso   1.000  N
  C76      1.0000 0.76352  0.23648  0.70378  Biso   1.000  C
  C77      1.0000 0.79917  0.20083  0.72980  Biso   1.000  C
  C78      1.0000 0.86232  0.13768  0.77738  Biso   1.000  C
  N10      1.0000 0.89712  0.10288  0.80098  Biso   1.000  N
  C79      1.0000 0.76162  0.52323  0.62242  Biso   1.000  C
  C80      1.0000 0.79072  0.58143  0.59573  Biso   1.000  C
  C81      1.0000 0.84192  0.68383  0.54373  Biso   1.000  C
  N11      1.0000 0.87037  0.74073  0.51554  Biso   1.000  N
  C82      1.0000 0.76352  0.52703  0.70378  Biso   1.000  C
  C83      1.0000 0.79917  0.59833  0.72980  Biso   1.000  C
  C84      1.0000 0.86232  0.72463  0.77738  Biso   1.000  C
  N12      1.0000 0.89712  0.79423  0.80098  Biso   1.000  N
  O27      1.0000 0.16683  0.65567  0.96634  Biso   1.000  O
  C85      1.0000 0.05983  0.45277  0.91506  Biso   1.000  C
  H121     1.0000 0.07993  0.40877  0.92357  Biso   1.000  H
  C86      1.0000 0.00643  0.42357  0.88918  Biso   1.000  C
  H122     1.0000 0.98733  0.35997  0.88037  Biso   1.000  H
  H123     1.0000 0.86273  0.40857  0.85167  Biso   1.000  H
  H124     1.0000 0.95993  0.44667  0.83567  Biso   1.000  H
  H125     1.0000 0.92043  0.51627  0.84217  Biso   1.000  H
  O28      1.0000 0.16543  0.65507  0.02752  Biso   1.000  O
  C87      1.0000 0.03973  0.44427  0.07517  Biso   1.000  C
  H126     1.0000 0.06183  0.40087  0.06727  Biso   1.000  H
  C88      1.0000 0.97783  0.41497  0.09907  Biso   1.000  C
  H127     1.0000 0.95943  0.35137  0.10777  Biso   1.000  H
  H128     1.0000 0.81563  0.37737  0.12927  Biso   1.000  H
  H129     1.0000 0.85523  0.48397  0.13877  Biso   1.000  H
  H130     1.0000 0.90173  0.42497  0.14997  Biso   1.000  H
  O29      1.0000 0.34433  0.51117  0.96634  Biso   1.000  O
  C89      1.0000 0.54723  0.60707  0.91506  Biso   1.000  C
  H131     1.0000 0.59123  0.67117  0.92357  Biso   1.000  H
  C90      1.0000 0.57643  0.58287  0.88918  Biso   1.000  C
  H132     1.0000 0.64003  0.62737  0.88037  Biso   1.000  H
  H133     1.0000 0.59143  0.45417  0.85167  Biso   1.000  H
  H134     1.0000 0.55333  0.51327  0.83567  Biso   1.000  H
  H135     1.0000 0.48373  0.40417  0.84217  Biso   1.000  H
  O30      1.0000 0.34493  0.51037  0.02752  Biso   1.000  O
  C91      1.0000 0.55573  0.59547  0.07517  Biso   1.000  C
  H136     1.0000 0.59913  0.66097  0.06727  Biso   1.000  H
  C92      1.0000 0.58503  0.56287  0.09907  Biso   1.000  C
  H137     1.0000 0.64863  0.60807  0.10777  Biso   1.000  H
  H138     1.0000 0.62263  0.43827  0.12927  Biso   1.000  H
  H139     1.0000 0.51603  0.37127  0.13877  Biso   1.000  H
  H140     1.0000 0.57503  0.47677  0.14997  Biso   1.000  H
  O31      1.0000 0.48883  0.83317  0.96634  Biso   1.000  O
  C93      1.0000 0.39293  0.94017  0.91506  Biso   1.000  C
  H141     1.0000 0.32883  0.92007  0.92357  Biso   1.000  H
  C94      1.0000 0.41713  0.99357  0.88918  Biso   1.000  C
  H142     1.0000 0.37263  0.01267  0.88037  Biso   1.000  H
  H143     1.0000 0.54583  0.13727  0.85167  Biso   1.000  H
  H144     1.0000 0.48673  0.04007  0.83567  Biso   1.000  H
  H145     1.0000 0.59583  0.07957  0.84217  Biso   1.000  H
  O32      1.0000 0.48963  0.83457  0.02752  Biso   1.000  O
  C95      1.0000 0.40453  0.96027  0.07517  Biso   1.000  C
  H146     1.0000 0.33903  0.93817  0.06727  Biso   1.000  H
  C96      1.0000 0.43713  0.02217  0.09907  Biso   1.000  C
  H147     1.0000 0.39193  0.04057  0.10777  Biso   1.000  H
  H148     1.0000 0.56173  0.18437  0.12927  Biso   1.000  H
  H149     1.0000 0.62873  0.14477  0.13877  Biso   1.000  H
  H150     1.0000 0.52323  0.09827  0.14997  Biso   1.000  H
  O33      1.0000 0.34433  0.83317  0.96634  Biso   1.000  O
  C97      1.0000 0.54723  0.94017  0.91506  Biso   1.000  C
  H151     1.0000 0.59123  0.92007  0.92357  Biso   1.000  H
  C98      1.0000 0.57643  0.99357  0.88918  Biso   1.000  C
  H152     1.0000 0.64003  0.01267  0.88037  Biso   1.000  H
  H153     1.0000 0.59143  0.13727  0.85167  Biso   1.000  H
  H154     1.0000 0.55333  0.04007  0.83567  Biso   1.000  H
  H155     1.0000 0.48373  0.07957  0.84217  Biso   1.000  H
  O34      1.0000 0.34493  0.83457  0.02752  Biso   1.000  O
  C99      1.0000 0.55573  0.96027  0.07517  Biso   1.000  C
  H156     1.0000 0.59913  0.93817  0.06727  Biso   1.000  H
  C100     1.0000 0.58503  0.02217  0.09907  Biso   1.000  C
  H157     1.0000 0.64863  0.04057  0.10777  Biso   1.000  H
  H158     1.0000 0.62263  0.18437  0.12927  Biso   1.000  H
  H159     1.0000 0.51603  0.14477  0.13877  Biso   1.000  H
  H160     1.0000 0.57503  0.09827  0.14997  Biso   1.000  H
  O35      1.0000 0.48883  0.65567  0.96634  Biso   1.000  O
  C101     1.0000 0.39293  0.45277  0.91506  Biso   1.000  C
  H161     1.0000 0.32883  0.40877  0.92357  Biso   1.000  H
  C102     1.0000 0.41713  0.42357  0.88918  Biso   1.000  C
  H162     1.0000 0.37263  0.35997  0.88037  Biso   1.000  H
  H163     1.0000 0.54583  0.40857  0.85167  Biso   1.000  H
  H164     1.0000 0.48673  0.44667  0.83567  Biso   1.000  H
  H165     1.0000 0.59583  0.51627  0.84217  Biso   1.000  H
  O36      1.0000 0.48963  0.65507  0.02752  Biso   1.000  O
  C103     1.0000 0.40453  0.44427  0.07517  Biso   1.000  C
  H166     1.0000 0.33903  0.40087  0.06727  Biso   1.000  H
  C104     1.0000 0.43713  0.41497  0.09907  Biso   1.000  C
  H167     1.0000 0.39193  0.35137  0.10777  Biso   1.000  H
  H168     1.0000 0.56173  0.37737  0.12927  Biso   1.000  H
  H169     1.0000 0.62873  0.48397  0.13877  Biso   1.000  H
  H170     1.0000 0.52323  0.42497  0.14997  Biso   1.000  H
  O37      1.0000 0.16683  0.51117  0.96634  Biso   1.000  O
  C105     1.0000 0.05983  0.60707  0.91506  Biso   1.000  C
  H171     1.0000 0.07993  0.67117  0.92357  Biso   1.000  H
  C106     1.0000 0.00643  0.58287  0.88918  Biso   1.000  C
  H172     1.0000 0.98733  0.62737  0.88037  Biso   1.000  H
  H173     1.0000 0.86273  0.45417  0.85167  Biso   1.000  H
  H174     1.0000 0.95993  0.51327  0.83567  Biso   1.000  H
  H175     1.0000 0.92043  0.40417  0.84217  Biso   1.000  H
  O38      1.0000 0.16543  0.51037  0.02752  Biso   1.000  O
  C107     1.0000 0.03973  0.59547  0.07517  Biso   1.000  C
  H176     1.0000 0.06183  0.66097  0.06727  Biso   1.000  H
  C108     1.0000 0.97783  0.56287  0.09907  Biso   1.000  C
  H177     1.0000 0.95943  0.60807  0.10777  Biso   1.000  H
  H178     1.0000 0.81563  0.43827  0.12927  Biso   1.000  H
  H179     1.0000 0.85523  0.37127  0.13877  Biso   1.000  H
  H180     1.0000 0.90173  0.47677  0.14997  Biso   1.000  H
  Cr7      1.0000 0.26124  0.73876  0.99713  Biso   1.000  Cr
  Cr8      1.0000 0.26124  0.52249  0.99713  Biso   1.000  Cr
  Cr9      1.0000 0.47751  0.73876  0.99713  Biso   1.000  Cr
  O39      1.0000 0.33333  0.66667  0.99674  Biso   1.000  O
  C109     1.0000 0.14343  0.57172  0.95576  Biso   1.000  C
  C110     1.0000 0.08523  0.54262  0.92907  Biso   1.000  C
  C111     1.0000 0.98283  0.49142  0.87707  Biso   1.000  C
  N13      1.0000 0.92593  0.46297  0.84888  Biso   1.000  N
  C112     1.0000 0.13963  0.56982  0.03712  Biso   1.000  C
  C113     1.0000 0.06833  0.53417  0.06314  Biso   1.000  C
  C114     1.0000 0.94203  0.47102  0.11072  Biso   1.000  C
  N14      1.0000 0.87243  0.43622  0.13432  Biso   1.000  N
  C115     1.0000 0.42828  0.57172  0.95576  Biso   1.000  C
  C116     1.0000 0.45738  0.54262  0.92907  Biso   1.000  C
  C117     1.0000 0.50858  0.49142  0.87707  Biso   1.000  C
  N15      1.0000 0.53703  0.46297  0.84888  Biso   1.000  N
  C118     1.0000 0.43018  0.56982  0.03712  Biso   1.000  C
  C119     1.0000 0.46583  0.53417  0.06314  Biso   1.000  C
  C120     1.0000 0.52898  0.47102  0.11072  Biso   1.000  C
  N16      1.0000 0.56378  0.43622  0.13432  Biso   1.000  N
  C121     1.0000 0.42828  0.85657  0.95576  Biso   1.000  C
  C122     1.0000 0.45738  0.91477  0.92907  Biso   1.000  C
  C123     1.0000 0.50858  0.01717  0.87707  Biso   1.000  C
  N17      1.0000 0.53703  0.07407  0.84888  Biso   1.000  N
  C124     1.0000 0.43018  0.86037  0.03712  Biso   1.000  C
  C125     1.0000 0.46583  0.93167  0.06314  Biso   1.000  C
  C126     1.0000 0.52898  0.05797  0.11072  Biso   1.000  C
  N18      1.0000 0.56378  0.12757  0.13432  Biso   1.000  N
