data_image0
_cell_length_a       8.9442
_cell_length_b       25.154
_cell_length_c       6.7966
_cell_angle_alpha    90
_cell_angle_beta     98.632
_cell_angle_gamma    90

_symmetry_space_group_name_H-M    "P 1"
_symmetry_int_tables_number       1

loop_
  _symmetry_equiv_pos_as_xyz
  'x, y, z'

loop_
  _atom_site_label
  _atom_site_occupancy
  _atom_site_fract_x
  _atom_site_fract_y
  _atom_site_fract_z
  _atom_site_thermal_displace_type
  _atom_site_B_iso_or_equiv
  _atom_site_type_symbol
  C1       1.0000 0.66500  0.62350  0.86880  Biso   1.000  C
  C2       1.0000 0.56780  0.67100  0.79710  Biso   1.000  C
  C3       1.0000 0.64030  0.71890  0.79700  Biso   1.000  C
  H1       1.0000 0.74760  0.71960  0.81340  Biso   1.000  H
  C4       1.0000 0.56000  0.76720  0.77340  Biso   1.000  C
  H2       1.0000 0.61300  0.79990  0.77600  Biso   1.000  H
  C5       1.0000 0.40440  0.76660  0.74640  Biso   1.000  C
  C6       1.0000 0.32120  0.81640  0.73520  Biso   1.000  C
  C7       1.0000 0.07980  0.76800  0.68300  Biso   1.000  C
  C8       1.0000 0.16430  0.71750  0.70290  Biso   1.000  C
  C9       1.0000 0.32460  0.71770  0.73480  Biso   1.000  C
  C10      1.0000 0.40580  0.66830  0.75790  Biso   1.000  C
  C11      1.0000 0.31880  0.62018  0.74230  Biso   1.000  C
  C12      1.0000 0.38860  0.56560  0.74590  Biso   1.000  C
  C13      1.0000 0.16200  0.62210  0.71560  Biso   1.000  C
  H3       1.0000 0.10640  0.58980  0.71150  Biso   1.000  H
  C14      1.0000 0.08390  0.67040  0.69450  Biso   1.000  C
  H4       1.0000 0.97650  0.67090  0.67460  Biso   1.000  H
  O1       1.0000 0.62380  0.59713  0.00760  Biso   1.000  O
  O2       1.0000 0.78470  0.61551  0.79670  Biso   1.000  O
  O3       1.0000 0.37830  0.86067  0.75250  Biso   1.000  O
  O4       1.0000 0.16520  0.81473  0.70160  Biso   1.000  O
  O5       1.0000 0.94470  0.77332  0.65680  Biso   1.000  O
  O6       1.0000 0.35980  0.53346  0.87940  Biso   1.000  O
  O7       1.0000 0.46610  0.55330  0.61220  Biso   1.000  O
  Sr1      1.0000 0.48891  0.54741  0.24495  Biso   1.000  Sr
  C15      1.0000 0.33500  0.12350  0.63120  Biso   1.000  C
  C16      1.0000 0.43220  0.17100  0.70290  Biso   1.000  C
  C17      1.0000 0.35970  0.21890  0.70300  Biso   1.000  C
  H5       1.0000 0.25240  0.21960  0.68660  Biso   1.000  H
  C18      1.0000 0.44000  0.26720  0.72660  Biso   1.000  C
  H6       1.0000 0.38700  0.29990  0.72400  Biso   1.000  H
  C19      1.0000 0.59560  0.26660  0.75360  Biso   1.000  C
  C20      1.0000 0.67880  0.31640  0.76480  Biso   1.000  C
  C21      1.0000 0.92020  0.26800  0.81700  Biso   1.000  C
  C22      1.0000 0.83570  0.21750  0.79710  Biso   1.000  C
  C23      1.0000 0.67540  0.21770  0.76520  Biso   1.000  C
  C24      1.0000 0.59420  0.16830  0.74210  Biso   1.000  C
  C25      1.0000 0.68120  0.12018  0.75770  Biso   1.000  C
  C26      1.0000 0.61140  0.06560  0.75410  Biso   1.000  C
  C27      1.0000 0.83800  0.12210  0.78440  Biso   1.000  C
  H7       1.0000 0.89360  0.08980  0.78850  Biso   1.000  H
  C28      1.0000 0.91610  0.17040  0.80550  Biso   1.000  C
  H8       1.0000 0.02350  0.17090  0.82540  Biso   1.000  H
  O8       1.0000 0.37620  0.09713  0.49240  Biso   1.000  O
  O9       1.0000 0.21530  0.11551  0.70330  Biso   1.000  O
  O10      1.0000 0.62170  0.36067  0.74750  Biso   1.000  O
  O11      1.0000 0.83480  0.31473  0.79840  Biso   1.000  O
  O12      1.0000 0.05530  0.27332  0.84320  Biso   1.000  O
  O13      1.0000 0.64020  0.03346  0.62060  Biso   1.000  O
  O14      1.0000 0.53390  0.05330  0.88780  Biso   1.000  O
  Sr2      1.0000 0.51109  0.04741  0.25505  Biso   1.000  Sr
  C29      1.0000 0.33500  0.37650  0.13120  Biso   1.000  C
  C30      1.0000 0.43220  0.32900  0.20290  Biso   1.000  C
  C31      1.0000 0.35970  0.28110  0.20300  Biso   1.000  C
  H9       1.0000 0.25240  0.28040  0.18660  Biso   1.000  H
  C32      1.0000 0.44000  0.23280  0.22660  Biso   1.000  C
  H10      1.0000 0.38700  0.20010  0.22400  Biso   1.000  H
  C33      1.0000 0.59560  0.23340  0.25360  Biso   1.000  C
  C34      1.0000 0.67880  0.18360  0.26480  Biso   1.000  C
  C35      1.0000 0.92020  0.23200  0.31700  Biso   1.000  C
  C36      1.0000 0.83570  0.28250  0.29710  Biso   1.000  C
  C37      1.0000 0.67540  0.28230  0.26520  Biso   1.000  C
  C38      1.0000 0.59420  0.33170  0.24210  Biso   1.000  C
  C39      1.0000 0.68120  0.37982  0.25770  Biso   1.000  C
  C40      1.0000 0.61140  0.43440  0.25410  Biso   1.000  C
  C41      1.0000 0.83800  0.37790  0.28440  Biso   1.000  C
  H11      1.0000 0.89360  0.41020  0.28850  Biso   1.000  H
  C42      1.0000 0.91610  0.32960  0.30550  Biso   1.000  C
  H12      1.0000 0.02350  0.32910  0.32540  Biso   1.000  H
  O15      1.0000 0.37620  0.40287  0.99240  Biso   1.000  O
  O16      1.0000 0.21530  0.38449  0.20330  Biso   1.000  O
  O17      1.0000 0.62170  0.13933  0.24750  Biso   1.000  O
  O18      1.0000 0.83480  0.18527  0.29840  Biso   1.000  O
  O19      1.0000 0.05530  0.22668  0.34320  Biso   1.000  O
  O20      1.0000 0.64020  0.46654  0.12060  Biso   1.000  O
  O21      1.0000 0.53390  0.44670  0.38780  Biso   1.000  O
  Sr3      1.0000 0.51109  0.45259  0.75505  Biso   1.000  Sr
  C43      1.0000 0.66500  0.87650  0.36880  Biso   1.000  C
  C44      1.0000 0.56780  0.82900  0.29710  Biso   1.000  C
  C45      1.0000 0.64030  0.78110  0.29700  Biso   1.000  C
  H13      1.0000 0.74760  0.78040  0.31340  Biso   1.000  H
  C46      1.0000 0.56000  0.73280  0.27340  Biso   1.000  C
  H14      1.0000 0.61300  0.70010  0.27600  Biso   1.000  H
  C47      1.0000 0.40440  0.73340  0.24640  Biso   1.000  C
  C48      1.0000 0.32120  0.68360  0.23520  Biso   1.000  C
  C49      1.0000 0.07980  0.73200  0.18300  Biso   1.000  C
  C50      1.0000 0.16430  0.78250  0.20290  Biso   1.000  C
  C51      1.0000 0.32460  0.78230  0.23480  Biso   1.000  C
  C52      1.0000 0.40580  0.83170  0.25790  Biso   1.000  C
  C53      1.0000 0.31880  0.87982  0.24230  Biso   1.000  C
  C54      1.0000 0.38860  0.93440  0.24590  Biso   1.000  C
  C55      1.0000 0.16200  0.87790  0.21560  Biso   1.000  C
  H15      1.0000 0.10640  0.91020  0.21150  Biso   1.000  H
  C56      1.0000 0.08390  0.82960  0.19450  Biso   1.000  C
  H16      1.0000 0.97650  0.82910  0.17460  Biso   1.000  H
  O22      1.0000 0.62380  0.90287  0.50760  Biso   1.000  O
  O23      1.0000 0.78470  0.88449  0.29670  Biso   1.000  O
  O24      1.0000 0.37830  0.63933  0.25250  Biso   1.000  O
  O25      1.0000 0.16520  0.68527  0.20160  Biso   1.000  O
  O26      1.0000 0.94470  0.72668  0.15680  Biso   1.000  O
  O27      1.0000 0.35980  0.96654  0.37940  Biso   1.000  O
  O28      1.0000 0.46610  0.94670  0.11220  Biso   1.000  O
  Sr4      1.0000 0.48891  0.95259  0.74495  Biso   1.000  Sr
