data_image0
_cell_length_a       8.2998
_cell_length_b       8.4671
_cell_length_c       13.2253
_cell_angle_alpha    90.36
_cell_angle_beta     90.302
_cell_angle_gamma    115.459

_symmetry_space_group_name_H-M    "P 1"
_symmetry_int_tables_number       1

loop_
  _symmetry_equiv_pos_as_xyz
  'x, y, z'

loop_
  _atom_site_label
  _atom_site_occupancy
  _atom_site_fract_x
  _atom_site_fract_y
  _atom_site_fract_z
  _atom_site_thermal_displace_type
  _atom_site_B_iso_or_equiv
  _atom_site_type_symbol
  N1       1.0000 0.74760  0.41640  0.56400  Biso   1.000  N
  H1       1.0000 0.76040  0.39420  0.49790  Biso   1.000  H
  H2       1.0000 0.72380  0.51150  0.56870  Biso   1.000  H
  H3       1.0000 0.85030  0.43770  0.59840  Biso   1.000  H
  C1       1.0000 0.59710  0.26150  0.60840  Biso   1.000  C
  H4       1.0000 0.62230  0.15780  0.60200  Biso   1.000  H
  H5       1.0000 0.48610  0.23730  0.57000  Biso   1.000  H
  C2       1.0000 0.56890  0.29230  0.72230  Biso   1.000  C
  H6       1.0000 0.54420  0.39650  0.72800  Biso   1.000  H
  H7       1.0000 0.46260  0.19050  0.74680  Biso   1.000  H
  C3       1.0000 0.72700  0.31910  0.79020  Biso   1.000  C
  H8       1.0000 0.75640  0.21820  0.78130  Biso   1.000  H
  H9       1.0000 0.83160  0.42520  0.76830  Biso   1.000  H
  C4       1.0000 0.69640  0.33780  0.89870  Biso   1.000  C
  H10      1.0000 0.59980  0.22570  0.92070  Biso   1.000  H
  H11      1.0000 0.80580  0.35200  0.93580  Biso   1.000  H
  N2       1.0000 0.65120  0.47530  0.93210  Biso   1.000  N
  H12      1.0000 0.63670  0.46960  0.00030  Biso   1.000  H
  H13      1.0000 0.74030  0.58070  0.91560  Biso   1.000  H
  H14      1.0000 0.54780  0.46270  0.90150  Biso   1.000  H
  H15      1.0000 0.57880  0.15370  0.57070  Biso   1.000  H
  H16      1.0000 0.48530  0.27650  0.60520  Biso   1.000  H
  C5       1.0000 0.65000  0.24900  0.72300  Biso   1.000  C
  H17      1.0000 0.55390  0.14410  0.75240  Biso   1.000  H
  H18      1.0000 0.75920  0.22860  0.72240  Biso   1.000  H
  C6       1.0000 0.68500  0.40100  0.79300  Biso   1.000  C
  H19      1.0000 0.58670  0.43780  0.78870  Biso   1.000  H
  H20      1.0000 0.79820  0.50240  0.77590  Biso   1.000  H
  H21      1.0000 0.79550  0.30220  0.89970  Biso   1.000  H
  H22      1.0000 0.72960  0.43840  0.94590  Biso   1.000  H
  N3       1.0000 0.54810  0.20220  0.93640  Biso   1.000  N
  H23      1.0000 0.57230  0.17670  0.99980  Biso   1.000  H
  H24      1.0000 0.45610  0.23340  0.93870  Biso   1.000  H
  H25      1.0000 0.51760  0.10640  0.89570  Biso   1.000  H
  N4       1.0000 0.25240  0.58360  0.43600  Biso   1.000  N
  H26      1.0000 0.23960  0.60580  0.50210  Biso   1.000  H
  H27      1.0000 0.27620  0.48850  0.43130  Biso   1.000  H
  H28      1.0000 0.14970  0.56230  0.40160  Biso   1.000  H
  C7       1.0000 0.40290  0.73850  0.39160  Biso   1.000  C
  H29      1.0000 0.37770  0.84220  0.39800  Biso   1.000  H
  H30      1.0000 0.51390  0.76270  0.43000  Biso   1.000  H
  C8       1.0000 0.43110  0.70770  0.27770  Biso   1.000  C
  H31      1.0000 0.45580  0.60350  0.27200  Biso   1.000  H
  H32      1.0000 0.53740  0.80950  0.25320  Biso   1.000  H
  C9       1.0000 0.27300  0.68090  0.20980  Biso   1.000  C
  H33      1.0000 0.24360  0.78180  0.21870  Biso   1.000  H
  H34      1.0000 0.16840  0.57480  0.23170  Biso   1.000  H
  C10      1.0000 0.30360  0.66220  0.10130  Biso   1.000  C
  H35      1.0000 0.40020  0.77430  0.07930  Biso   1.000  H
  H36      1.0000 0.19420  0.64800  0.06420  Biso   1.000  H
  N5       1.0000 0.34880  0.52470  0.06790  Biso   1.000  N
  H37      1.0000 0.36330  0.53040  0.99970  Biso   1.000  H
  H38      1.0000 0.25970  0.41930  0.08440  Biso   1.000  H
  H39      1.0000 0.45220  0.53730  0.09850  Biso   1.000  H
  H40      1.0000 0.42120  0.84630  0.42930  Biso   1.000  H
  H41      1.0000 0.51470  0.72350  0.39480  Biso   1.000  H
  C11      1.0000 0.35000  0.75100  0.27700  Biso   1.000  C
  H42      1.0000 0.44610  0.85590  0.24760  Biso   1.000  H
  H43      1.0000 0.24080  0.77140  0.27760  Biso   1.000  H
  C12      1.0000 0.31500  0.59900  0.20700  Biso   1.000  C
  H44      1.0000 0.41330  0.56220  0.21130  Biso   1.000  H
  H45      1.0000 0.20180  0.49760  0.22410  Biso   1.000  H
  H46      1.0000 0.20450  0.69780  0.10030  Biso   1.000  H
  H47      1.0000 0.27040  0.56160  0.05410  Biso   1.000  H
  N6       1.0000 0.45190  0.79780  0.06360  Biso   1.000  N
  H48      1.0000 0.42770  0.82330  0.00020  Biso   1.000  H
  H49      1.0000 0.54390  0.76660  0.06130  Biso   1.000  H
  H50      1.0000 0.48240  0.89360  0.10430  Biso   1.000  H
  Cu1      1.0000 0.68320  0.33385  0.24957  Biso   1.000  Cu
  O1       1.0000 0.67980  0.14020  0.33360  Biso   1.000  O
  O2       1.0000 0.81240  0.99520  0.40850  Biso   1.000  O
  O3       1.0000 0.88170  0.33690  0.16810  Biso   1.000  O
  O4       1.0000 0.01840  0.20440  0.08230  Biso   1.000  O
  C13      1.0000 0.81560  0.13120  0.36800  Biso   1.000  C
  H51      1.0000 0.92680  0.23130  0.36360  Biso   1.000  H
  C14      1.0000 0.88500  0.20390  0.12720  Biso   1.000  C
  H52      1.0000 0.78050  0.09660  0.13040  Biso   1.000  H
  Cu2      1.0000 0.31680  0.66615  0.75043  Biso   1.000  Cu
  O5       1.0000 0.32020  0.85980  0.66640  Biso   1.000  O
  O6       1.0000 0.18760  0.00480  0.59150  Biso   1.000  O
  O7       1.0000 0.11830  0.66310  0.83190  Biso   1.000  O
  O8       1.0000 0.98160  0.79560  0.91770  Biso   1.000  O
  C15      1.0000 0.18440  0.86880  0.63200  Biso   1.000  C
  H53      1.0000 0.07320  0.76870  0.63640  Biso   1.000  H
  C16      1.0000 0.11500  0.79610  0.87280  Biso   1.000  C
  H54      1.0000 0.21950  0.90340  0.86960  Biso   1.000  H
  Cu3      1.0000 0.00000  0.00000  0.00000  Biso   1.000  Cu
  Cu4      1.0000 0.00000  0.00000  0.50000  Biso   1.000  Cu
