data_image0
_cell_length_a       10.2257
_cell_length_b       12.3002
_cell_length_c       19.2829
_cell_angle_alpha    77.153
_cell_angle_beta     77.761
_cell_angle_gamma    72.052

_symmetry_space_group_name_H-M    "P 1"
_symmetry_int_tables_number       1

loop_
  _symmetry_equiv_pos_as_xyz
  'x, y, z'

loop_
  _atom_site_label
  _atom_site_occupancy
  _atom_site_fract_x
  _atom_site_fract_y
  _atom_site_fract_z
  _atom_site_thermal_displace_type
  _atom_site_B_iso_or_equiv
  _atom_site_type_symbol
  C1       1.0000 0.47240  0.87890  0.12100  Biso   1.000  C
  H1       1.0000 0.40940  0.95570  0.12320  Biso   1.000  H
  H2       1.0000 0.43220  0.83910  0.09650  Biso   1.000  H
  C2       1.0000 0.60920  0.89100  0.07690  Biso   1.000  C
  C3       1.0000 0.64240  0.86900  0.00640  Biso   1.000  C
  H3       1.0000 0.57940  0.84780  0.98720  Biso   1.000  H
  C4       1.0000 0.76580  0.87830  0.96510  Biso   1.000  C
  H4       1.0000 0.78370  0.86900  0.91710  Biso   1.000  H
  C5       1.0000 0.85860  0.90010  0.99280  Biso   1.000  C
  H5       1.0000 0.94530  0.89930  0.96530  Biso   1.000  H
  C6       1.0000 0.83230  0.92410  0.06130  Biso   1.000  C
  H6       1.0000 0.89890  0.94270  0.07910  Biso   1.000  H
  C7       1.0000 0.70220  0.92030  0.10500  Biso   1.000  C
  H7       1.0000 0.68150  0.93740  0.15140  Biso   1.000  H
  C8       1.0000 0.26980  0.61270  0.24210  Biso   1.000  C
  H8       1.0000 0.29080  0.56680  0.28830  Biso   1.000  H
  H9       1.0000 0.22360  0.57250  0.22130  Biso   1.000  H
  C9       1.0000 0.17050  0.72890  0.25450  Biso   1.000  C
  C10      1.0000 0.13490  0.81610  0.19660  Biso   1.000  C
  H10      1.0000 0.17470  0.80380  0.14990  Biso   1.000  H
  C11      1.0000 0.04070  0.92100  0.20790  Biso   1.000  C
  H11      1.0000 0.01810  0.97880  0.16870  Biso   1.000  H
  C12      1.0000 0.98030  0.94080  0.27610  Biso   1.000  C
  H12      1.0000 0.91600  0.01120  0.28340  Biso   1.000  H
  C13      1.0000 0.01640  0.85460  0.33360  Biso   1.000  C
  H13      1.0000 0.97680  0.86750  0.38020  Biso   1.000  H
  C14      1.0000 0.11080  0.74920  0.32320  Biso   1.000  C
  H14      1.0000 0.13390  0.69190  0.36260  Biso   1.000  H
  C15      1.0000 0.60790  0.33680  0.21810  Biso   1.000  C
  C16      1.0000 0.48060  0.32290  0.25340  Biso   1.000  C
  H15      1.0000 0.44460  0.34760  0.29750  Biso   1.000  H
  C17      1.0000 0.40550  0.27280  0.22440  Biso   1.000  C
  H16      1.0000 0.32020  0.26340  0.24930  Biso   1.000  H
  C18      1.0000 0.45490  0.23770  0.16040  Biso   1.000  C
  H17      1.0000 0.40400  0.20380  0.14130  Biso   1.000  H
  C19      1.0000 0.57960  0.25160  0.12330  Biso   1.000  C
  H18      1.0000 0.61270  0.22800  0.07870  Biso   1.000  H
  C20      1.0000 0.65800  0.30110  0.15190  Biso   1.000  C
  H19      1.0000 0.74330  0.30990  0.12670  Biso   1.000  H
  C21      1.0000 0.78550  0.70650  0.27690  Biso   1.000  C
  H20      1.0000 0.71030  0.77020  0.29340  Biso   1.000  H
  H21      1.0000 0.86520  0.73620  0.25560  Biso   1.000  H
  C22      1.0000 0.82290  0.61370  0.34110  Biso   1.000  C
  C23      1.0000 0.91640  0.50840  0.33050  Biso   1.000  C
  H22      1.0000 0.95300  0.49380  0.28400  Biso   1.000  H
  C24      1.0000 0.95590  0.42470  0.38900  Biso   1.000  C
  H23      1.0000 0.02090  0.35460  0.38170  Biso   1.000  H
  C25      1.0000 0.89950  0.44460  0.45740  Biso   1.000  C
  H24      1.0000 0.92430  0.38700  0.49640  Biso   1.000  H
  C26      1.0000 0.80820  0.54740  0.46890  Biso   1.000  C
  H25      1.0000 0.77230  0.56060  0.51580  Biso   1.000  H
  C27      1.0000 0.76740  0.63370  0.41090  Biso   1.000  C
  H26      1.0000 0.70370  0.70400  0.41890  Biso   1.000  H
  O1       1.0000 0.96260  0.63930  0.15354  Biso   1.000  O
  C28      1.0000 0.56480  0.59200  0.09220  Biso   1.000  C
  C29      1.0000 0.62660  0.56840  0.02390  Biso   1.000  C
  H27      1.0000 0.57480  0.55280  0.99500  Biso   1.000  H
  C30      1.0000 0.77410  0.61330  0.10930  Biso   1.000  C
  C31      1.0000 0.83220  0.59030  0.04060  Biso   1.000  C
  H28      1.0000 0.92420  0.59080  0.02350  Biso   1.000  H
  C32      1.0000 0.42090  0.59300  0.12940  Biso   1.000  C
  C33      1.0000 0.83670  0.64100  0.16480  Biso   1.000  C
  C34      1.0000 0.41470  0.79760  0.31870  Biso   1.000  C
  C35      1.0000 0.35480  0.82390  0.38650  Biso   1.000  C
  H29      1.0000 0.31290  0.90080  0.39180  Biso   1.000  H
  C36      1.0000 0.48230  0.60100  0.36930  Biso   1.000  C
  C37      1.0000 0.41860  0.63080  0.43590  Biso   1.000  C
  H30      1.0000 0.41930  0.57240  0.47600  Biso   1.000  H
  C38      1.0000 0.41550  0.87580  0.24760  Biso   1.000  C
  C39      1.0000 0.56040  0.48570  0.34990  Biso   1.000  C
  C40      1.0000 0.69050  0.38880  0.25120  Biso   1.000  C
  H31      1.0000 0.73120  0.33180  0.28990  Biso   1.000  H
  H32      1.0000 0.76600  0.40720  0.21510  Biso   1.000  H
  N1       1.0000 0.47640  0.68710  0.31240  Biso   1.000  N
  N2       1.0000 0.35630  0.74010  0.44460  Biso   1.000  N
  N3       1.0000 0.64100  0.61370  0.13250  Biso   1.000  N
  N4       1.0000 0.75990  0.56760  0.99870  Biso   1.000  N
  N5       1.0000 0.48170  0.81650  0.19388  Biso   1.000  N
  N6       1.0000 0.60670  0.49380  0.27971  Biso   1.000  N
  N7       1.0000 0.39990  0.61910  0.19523  Biso   1.000  N
  N8       1.0000 0.74310  0.66620  0.22164  Biso   1.000  N
  Co1      1.0000 0.55824  0.64963  0.22270  Biso   1.000  Co
  Ag1      1.0000 0.15116  0.49240  0.11553  Biso   1.000  Ag
  Ag2      1.0000 0.73670  0.22731  0.43517  Biso   1.000  Ag
  O2       1.0000 0.34020  0.57060  0.09808  Biso   1.000  O
  O3       1.0000 0.35870  0.98250  0.24290  Biso   1.000  O
  O4       1.0000 0.57290  0.39820  0.39870  Biso   1.000  O
  C41      1.0000 0.52760  0.12110  0.87900  Biso   1.000  C
  H33      1.0000 0.59060  0.04430  0.87680  Biso   1.000  H
  H34      1.0000 0.56780  0.16090  0.90350  Biso   1.000  H
  C42      1.0000 0.39080  0.10900  0.92310  Biso   1.000  C
  C43      1.0000 0.35760  0.13100  0.99360  Biso   1.000  C
  H35      1.0000 0.42060  0.15220  0.01280  Biso   1.000  H
  C44      1.0000 0.23420  0.12170  0.03490  Biso   1.000  C
  H36      1.0000 0.21630  0.13100  0.08290  Biso   1.000  H
  C45      1.0000 0.14140  0.09990  0.00720  Biso   1.000  C
  H37      1.0000 0.05470  0.10070  0.03470  Biso   1.000  H
  C46      1.0000 0.16770  0.07590  0.93870  Biso   1.000  C
  H38      1.0000 0.10110  0.05730  0.92090  Biso   1.000  H
  C47      1.0000 0.29780  0.07970  0.89500  Biso   1.000  C
  H39      1.0000 0.31850  0.06260  0.84860  Biso   1.000  H
  C48      1.0000 0.73020  0.38730  0.75790  Biso   1.000  C
  H40      1.0000 0.70920  0.43320  0.71170  Biso   1.000  H
  H41      1.0000 0.77640  0.42750  0.77870  Biso   1.000  H
  C49      1.0000 0.82950  0.27110  0.74550  Biso   1.000  C
  C50      1.0000 0.86510  0.18390  0.80340  Biso   1.000  C
  H42      1.0000 0.82530  0.19620  0.85010  Biso   1.000  H
  C51      1.0000 0.95930  0.07900  0.79210  Biso   1.000  C
  H43      1.0000 0.98190  0.02120  0.83130  Biso   1.000  H
  C52      1.0000 0.01970  0.05920  0.72390  Biso   1.000  C
  H44      1.0000 0.08400  0.98880  0.71660  Biso   1.000  H
  C53      1.0000 0.98360  0.14540  0.66640  Biso   1.000  C
  H45      1.0000 0.02320  0.13250  0.61980  Biso   1.000  H
  C54      1.0000 0.88920  0.25080  0.67680  Biso   1.000  C
  H46      1.0000 0.86610  0.30810  0.63740  Biso   1.000  H
  C55      1.0000 0.39210  0.66320  0.78190  Biso   1.000  C
  C56      1.0000 0.51940  0.67710  0.74660  Biso   1.000  C
  H47      1.0000 0.55540  0.65240  0.70250  Biso   1.000  H
  C57      1.0000 0.59450  0.72720  0.77560  Biso   1.000  C
  H48      1.0000 0.67980  0.73660  0.75070  Biso   1.000  H
  C58      1.0000 0.54510  0.76230  0.83960  Biso   1.000  C
  H49      1.0000 0.59600  0.79620  0.85870  Biso   1.000  H
  C59      1.0000 0.42040  0.74840  0.87670  Biso   1.000  C
  H50      1.0000 0.38730  0.77200  0.92130  Biso   1.000  H
  C60      1.0000 0.34200  0.69890  0.84810  Biso   1.000  C
  H51      1.0000 0.25670  0.69010  0.87330  Biso   1.000  H
  C61      1.0000 0.21450  0.29350  0.72310  Biso   1.000  C
  H52      1.0000 0.28970  0.22980  0.70660  Biso   1.000  H
  H53      1.0000 0.13480  0.26380  0.74440  Biso   1.000  H
  C62      1.0000 0.17710  0.38630  0.65890  Biso   1.000  C
  C63      1.0000 0.08360  0.49160  0.66950  Biso   1.000  C
  H54      1.0000 0.04700  0.50620  0.71600  Biso   1.000  H
  C64      1.0000 0.04410  0.57530  0.61100  Biso   1.000  C
  H55      1.0000 0.97910  0.64540  0.61830  Biso   1.000  H
  C65      1.0000 0.10050  0.55540  0.54260  Biso   1.000  C
  H56      1.0000 0.07570  0.61300  0.50360  Biso   1.000  H
  C66      1.0000 0.19180  0.45260  0.53110  Biso   1.000  C
  H57      1.0000 0.22770  0.43940  0.48420  Biso   1.000  H
  C67      1.0000 0.23260  0.36630  0.58910  Biso   1.000  C
  H58      1.0000 0.29630  0.29600  0.58110  Biso   1.000  H
  O5       1.0000 0.03740  0.36070  0.84646  Biso   1.000  O
  C68      1.0000 0.43520  0.40800  0.90780  Biso   1.000  C
  C69      1.0000 0.37340  0.43160  0.97610  Biso   1.000  C
  H59      1.0000 0.42520  0.44720  0.00500  Biso   1.000  H
  C70      1.0000 0.22590  0.38670  0.89070  Biso   1.000  C
  C71      1.0000 0.16780  0.40970  0.95940  Biso   1.000  C
  H60      1.0000 0.07580  0.40920  0.97650  Biso   1.000  H
  C72      1.0000 0.57910  0.40700  0.87060  Biso   1.000  C
  C73      1.0000 0.16330  0.35900  0.83520  Biso   1.000  C
  C74      1.0000 0.58530  0.20240  0.68130  Biso   1.000  C
  C75      1.0000 0.64520  0.17610  0.61350  Biso   1.000  C
  H61      1.0000 0.68710  0.09920  0.60820  Biso   1.000  H
  C76      1.0000 0.51770  0.39900  0.63070  Biso   1.000  C
  C77      1.0000 0.58140  0.36920  0.56410  Biso   1.000  C
  H62      1.0000 0.58070  0.42760  0.52400  Biso   1.000  H
  C78      1.0000 0.58450  0.12420  0.75240  Biso   1.000  C
  C79      1.0000 0.43960  0.51430  0.65010  Biso   1.000  C
  C80      1.0000 0.30950  0.61120  0.74880  Biso   1.000  C
  H63      1.0000 0.26880  0.66820  0.71010  Biso   1.000  H
  H64      1.0000 0.23400  0.59280  0.78490  Biso   1.000  H
  N9       1.0000 0.52360  0.31290  0.68760  Biso   1.000  N
  N10      1.0000 0.64370  0.25990  0.55540  Biso   1.000  N
  N11      1.0000 0.35900  0.38630  0.86750  Biso   1.000  N
  N12      1.0000 0.24010  0.43240  0.00130  Biso   1.000  N
  N13      1.0000 0.51830  0.18350  0.80612  Biso   1.000  N
  N14      1.0000 0.39330  0.50620  0.72029  Biso   1.000  N
  N15      1.0000 0.60010  0.38090  0.80477  Biso   1.000  N
  N16      1.0000 0.25690  0.33380  0.77836  Biso   1.000  N
  Co2      1.0000 0.44176  0.35037  0.77730  Biso   1.000  Co
  Ag3      1.0000 0.84884  0.50760  0.88447  Biso   1.000  Ag
  Ag4      1.0000 0.26330  0.77269  0.56483  Biso   1.000  Ag
  O6       1.0000 0.65980  0.42940  0.90192  Biso   1.000  O
  O7       1.0000 0.64130  0.01750  0.75710  Biso   1.000  O
  O8       1.0000 0.42710  0.60180  0.60130  Biso   1.000  O
