data_image0
_cell_length_a       6.8041
_cell_length_b       9.1509
_cell_length_c       14.842
_cell_angle_alpha    103.814
_cell_angle_beta     100.758
_cell_angle_gamma    101.498

_symmetry_space_group_name_H-M    "P 1"
_symmetry_int_tables_number       1

loop_
  _symmetry_equiv_pos_as_xyz
  'x, y, z'

loop_
  _atom_site_label
  _atom_site_occupancy
  _atom_site_fract_x
  _atom_site_fract_y
  _atom_site_fract_z
  _atom_site_thermal_displace_type
  _atom_site_B_iso_or_equiv
  _atom_site_type_symbol
  Mn1      1.0000 0.80432  0.55770  0.19525  Biso   1.000  Mn
  N1       1.0000 0.02570  0.77360  0.31030  Biso   1.000  N
  O1       1.0000 0.86690  0.74530  0.12660  Biso   1.000  O
  O2       1.0000 0.03220  0.98920  0.14280  Biso   1.000  O
  O3       1.0000 0.35190  0.70350  0.83030  Biso   1.000  O
  O4       1.0000 0.17280  0.56090  0.68720  Biso   1.000  O
  O5       1.0000 0.65210  0.28330  0.88460  Biso   1.000  O
  O6       1.0000 0.47220  0.37930  0.78230  Biso   1.000  O
  C1       1.0000 0.98220  0.87550  0.17370  Biso   1.000  C
  C2       1.0000 0.06900  0.89970  0.27930  Biso   1.000  C
  C3       1.0000 0.09720  0.79090  0.40410  Biso   1.000  C
  H1       1.0000 0.07210  0.70280  0.42530  Biso   1.000  H
  C4       1.0000 0.20410  0.92930  0.47040  Biso   1.000  C
  C5       1.0000 0.24440  0.05790  0.43610  Biso   1.000  C
  H2       1.0000 0.31790  0.15440  0.47830  Biso   1.000  H
  C6       1.0000 0.17720  0.04420  0.34080  Biso   1.000  C
  H3       1.0000 0.20390  0.13040  0.31800  Biso   1.000  H
  C7       1.0000 0.27470  0.94450  0.57550  Biso   1.000  C
  C8       1.0000 0.25030  0.81660  0.60980  Biso   1.000  C
  H4       1.0000 0.18710  0.71840  0.56730  Biso   1.000  H
  C9       1.0000 0.31830  0.83110  0.70740  Biso   1.000  C
  C10      1.0000 0.27780  0.68960  0.74370  Biso   1.000  C
  C11      1.0000 0.41450  0.97690  0.77110  Biso   1.000  C
  H5       1.0000 0.46520  0.98660  0.83550  Biso   1.000  H
  C12      1.0000 0.43530  0.10790  0.73930  Biso   1.000  C
  C13      1.0000 0.52560  0.26740  0.80640  Biso   1.000  C
  C14      1.0000 0.36450  0.09080  0.64250  Biso   1.000  C
  H6       1.0000 0.37700  0.17930  0.62130  Biso   1.000  H
  Mn2      1.0000 0.19568  0.44230  0.80475  Biso   1.000  Mn
  N2       1.0000 0.97430  0.22640  0.68970  Biso   1.000  N
  O7       1.0000 0.13310  0.25470  0.87340  Biso   1.000  O
  O8       1.0000 0.96780  0.01080  0.85720  Biso   1.000  O
  O9       1.0000 0.64810  0.29650  0.16970  Biso   1.000  O
  O10      1.0000 0.82720  0.43910  0.31280  Biso   1.000  O
  O11      1.0000 0.34790  0.71670  0.11540  Biso   1.000  O
  O12      1.0000 0.52780  0.62070  0.21770  Biso   1.000  O
  C15      1.0000 0.01780  0.12450  0.82630  Biso   1.000  C
  C16      1.0000 0.93100  0.10030  0.72070  Biso   1.000  C
  C17      1.0000 0.90280  0.20910  0.59590  Biso   1.000  C
  H7       1.0000 0.92790  0.29720  0.57470  Biso   1.000  H
  C18      1.0000 0.79590  0.07070  0.52960  Biso   1.000  C
  C19      1.0000 0.75560  0.94210  0.56390  Biso   1.000  C
  H8       1.0000 0.68210  0.84560  0.52170  Biso   1.000  H
  C20      1.0000 0.82280  0.95580  0.65920  Biso   1.000  C
  H9       1.0000 0.79610  0.86960  0.68200  Biso   1.000  H
  C21      1.0000 0.72530  0.05550  0.42450  Biso   1.000  C
  C22      1.0000 0.74970  0.18340  0.39020  Biso   1.000  C
  H10      1.0000 0.81290  0.28160  0.43270  Biso   1.000  H
  C23      1.0000 0.68170  0.16890  0.29260  Biso   1.000  C
  C24      1.0000 0.72220  0.31040  0.25630  Biso   1.000  C
  C25      1.0000 0.58550  0.02310  0.22890  Biso   1.000  C
  H11      1.0000 0.53480  0.01340  0.16450  Biso   1.000  H
  C26      1.0000 0.56470  0.89210  0.26070  Biso   1.000  C
  C27      1.0000 0.47440  0.73260  0.19360  Biso   1.000  C
  C28      1.0000 0.63550  0.90920  0.35750  Biso   1.000  C
  H12      1.0000 0.62300  0.82070  0.37870  Biso   1.000  H
  Mn3      1.0000 0.00000  0.00000  0.00000  Biso   1.000  Mn
