data_image0
_cell_length_a       7.5346
_cell_length_b       11.4637
_cell_length_c       17.235
_cell_angle_alpha    82.286
_cell_angle_beta     88.016
_cell_angle_gamma    84.343

_symmetry_space_group_name_H-M    "P 1"
_symmetry_int_tables_number       1

loop_
  _symmetry_equiv_pos_as_xyz
  'x, y, z'

loop_
  _atom_site_label
  _atom_site_occupancy
  _atom_site_fract_x
  _atom_site_fract_y
  _atom_site_fract_z
  _atom_site_thermal_displace_type
  _atom_site_B_iso_or_equiv
  _atom_site_type_symbol
  Ag1      1.0000 0.61849  0.51488  0.15473  Biso   1.000  Ag
  Ag2      1.0000 0.70200  0.77710  0.08930  Biso   1.000  Ag
  Ag3      1.0000 0.69100  0.77290  0.10560  Biso   1.000  Ag
  Ag4      1.0000 0.12950  0.73800  0.11244  Biso   1.000  Ag
  Ag5      1.0000 0.08520  0.74970  0.09950  Biso   1.000  Ag
  Ag6      1.0000 0.12192  0.36115  0.01606  Biso   1.000  Ag
  Ag7      1.0000 0.66020  0.94395  0.41580  Biso   1.000  Ag
  Ag8      1.0000 0.65476  0.19404  0.59200  Biso   1.000  Ag
  Ag9      1.0000 0.28829  0.30784  0.59642  Biso   1.000  Ag
  Ag10     1.0000 0.12591  0.26770  0.44752  Biso   1.000  Ag
  N1       1.0000 0.12030  0.34270  0.14580  Biso   1.000  N
  N2       1.0000 0.12250  0.30760  0.30930  Biso   1.000  N
  C1       1.0000 0.88570  0.62020  0.11140  Biso   1.000  C
  C2       1.0000 0.95910  0.53110  0.14670  Biso   1.000  C
  C3       1.0000 0.04560  0.42470  0.18850  Biso   1.000  C
  C4       1.0000 0.04770  0.40690  0.27020  Biso   1.000  C
  H1       1.0000 0.99540  0.46610  0.29790  Biso   1.000  H
  C5       1.0000 0.19400  0.22520  0.26670  Biso   1.000  C
  H2       1.0000 0.24460  0.15370  0.29230  Biso   1.000  H
  C6       1.0000 0.19540  0.24250  0.18670  Biso   1.000  C
  H3       1.0000 0.24980  0.18330  0.15950  Biso   1.000  H
  N3       1.0000 0.62950  0.11970  0.33920  Biso   1.000  N
  N4       1.0000 0.63650  0.33680  0.24520  Biso   1.000  N
  C7       1.0000 0.41970  0.21280  0.50860  Biso   1.000  C
  C8       1.0000 0.48660  0.21500  0.44290  Biso   1.000  C
  C9       1.0000 0.56540  0.22070  0.36600  Biso   1.000  C
  C10      1.0000 0.57170  0.32880  0.31820  Biso   1.000  C
  H4       1.0000 0.52890  0.39790  0.33830  Biso   1.000  H
  C11      1.0000 0.69970  0.23530  0.21940  Biso   1.000  C
  H5       1.0000 0.74580  0.23700  0.16860  Biso   1.000  H
  C12      1.0000 0.69770  0.12800  0.26680  Biso   1.000  C
  H6       1.0000 0.74550  0.05960  0.24730  Biso   1.000  H
  N5       1.0000 0.48690  0.89760  0.21470  Biso   1.000  N
  O1       1.0000 0.37120  0.95960  0.24870  Biso   1.000  O
  O2       1.0000 0.45010  0.86570  0.15140  Biso   1.000  O
  O3       1.0000 0.63580  0.86910  0.24340  Biso   1.000  O
  Ag11     1.0000 0.38151  0.48512  0.84527  Biso   1.000  Ag
  Ag12     1.0000 0.29800  0.22290  0.91070  Biso   1.000  Ag
  Ag13     1.0000 0.30900  0.22710  0.89440  Biso   1.000  Ag
  Ag14     1.0000 0.87050  0.26200  0.88756  Biso   1.000  Ag
  Ag15     1.0000 0.91480  0.25030  0.90050  Biso   1.000  Ag
  Ag16     1.0000 0.87808  0.63885  0.98394  Biso   1.000  Ag
  Ag17     1.0000 0.33980  0.05605  0.58420  Biso   1.000  Ag
  Ag18     1.0000 0.34524  0.80596  0.40800  Biso   1.000  Ag
  Ag19     1.0000 0.71171  0.69216  0.40358  Biso   1.000  Ag
  Ag20     1.0000 0.87409  0.73230  0.55248  Biso   1.000  Ag
  N6       1.0000 0.87970  0.65730  0.85420  Biso   1.000  N
  N7       1.0000 0.87750  0.69240  0.69070  Biso   1.000  N
  C13      1.0000 0.11430  0.37980  0.88860  Biso   1.000  C
  C14      1.0000 0.04090  0.46890  0.85330  Biso   1.000  C
  C15      1.0000 0.95440  0.57530  0.81150  Biso   1.000  C
  C16      1.0000 0.95230  0.59310  0.72980  Biso   1.000  C
  H7       1.0000 0.00460  0.53390  0.70210  Biso   1.000  H
  C17      1.0000 0.80600  0.77480  0.73330  Biso   1.000  C
  H8       1.0000 0.75540  0.84630  0.70770  Biso   1.000  H
  C18      1.0000 0.80460  0.75750  0.81330  Biso   1.000  C
  H9       1.0000 0.75020  0.81670  0.84050  Biso   1.000  H
  N8       1.0000 0.37050  0.88030  0.66080  Biso   1.000  N
  N9       1.0000 0.36350  0.66320  0.75480  Biso   1.000  N
  C19      1.0000 0.58030  0.78720  0.49140  Biso   1.000  C
  C20      1.0000 0.51340  0.78500  0.55710  Biso   1.000  C
  C21      1.0000 0.43460  0.77930  0.63400  Biso   1.000  C
  C22      1.0000 0.42830  0.67120  0.68180  Biso   1.000  C
  H10      1.0000 0.47110  0.60210  0.66170  Biso   1.000  H
  C23      1.0000 0.30030  0.76470  0.78060  Biso   1.000  C
  H11      1.0000 0.25420  0.76300  0.83140  Biso   1.000  H
  C24      1.0000 0.30230  0.87200  0.73320  Biso   1.000  C
  H12      1.0000 0.25450  0.94040  0.75270  Biso   1.000  H
  N10      1.0000 0.51310  0.10240  0.78530  Biso   1.000  N
  O4       1.0000 0.62880  0.04040  0.75130  Biso   1.000  O
  O5       1.0000 0.54990  0.13430  0.84860  Biso   1.000  O
  O6       1.0000 0.36420  0.13090  0.75660  Biso   1.000  O
