data_image0
_cell_length_a       25.202
_cell_length_b       13.227
_cell_length_c       21.533
_cell_angle_alpha    90
_cell_angle_beta     123.633
_cell_angle_gamma    90

_symmetry_space_group_name_H-M    "P 1"
_symmetry_int_tables_number       1

loop_
  _symmetry_equiv_pos_as_xyz
  'x, y, z'

loop_
  _atom_site_label
  _atom_site_occupancy
  _atom_site_fract_x
  _atom_site_fract_y
  _atom_site_fract_z
  _atom_site_thermal_displace_type
  _atom_site_B_iso_or_equiv
  _atom_site_type_symbol
  Cu1      1.0000 0.57547  0.37748  0.01179  Biso   1.000  Cu
  C1       1.0000 0.42130  0.34650  0.79400  Biso   1.000  C
  C2       1.0000 0.38550  0.28200  0.60440  Biso   1.000  C
  H1       1.0000 0.34080  0.26360  0.57480  Biso   1.000  H
  H2       1.0000 0.38880  0.35300  0.59580  Biso   1.000  H
  C3       1.0000 0.38880  0.34090  0.71350  Biso   1.000  C
  H3       1.0000 0.34390  0.32830  0.69150  Biso   1.000  H
  H4       1.0000 0.39260  0.40570  0.69520  Biso   1.000  H
  C4       1.0000 0.39480  0.34940  0.83330  Biso   1.000  C
  H5       1.0000 0.35120  0.34480  0.81210  Biso   1.000  H
  C5       1.0000 0.71300  0.42180  0.06840  Biso   1.000  C
  H6       1.0000 0.72590  0.35470  0.07380  Biso   1.000  H
  C6       1.0000 0.48420  0.35880  0.84520  Biso   1.000  C
  H7       1.0000 0.51490  0.36160  0.83410  Biso   1.000  H
  C7       1.0000 0.41780  0.22520  0.58110  Biso   1.000  C
  H8       1.0000 0.39890  0.23600  0.52880  Biso   1.000  H
  H9       1.0000 0.41500  0.15480  0.58990  Biso   1.000  H
  H10      1.0000 0.46170  0.24540  0.60850  Biso   1.000  H
  C8       1.0000 0.41320  0.26510  0.69040  Biso   1.000  C
  H11      1.0000 0.40070  0.19900  0.69760  Biso   1.000  H
  H12      1.0000 0.45940  0.26830  0.71950  Biso   1.000  H
  N1       1.0000 0.43720  0.35950  0.90460  Biso   1.000  N
  N2       1.0000 0.49640  0.36650  0.91330  Biso   1.000  N
  N3       1.0000 0.65480  0.44890  0.04320  Biso   1.000  N
  Cu2      1.0000 0.42453  0.37748  0.98821  Biso   1.000  Cu
  C9       1.0000 0.57870  0.34650  0.20600  Biso   1.000  C
  C10      1.0000 0.61450  0.28200  0.39560  Biso   1.000  C
  H13      1.0000 0.65920  0.26360  0.42520  Biso   1.000  H
  H14      1.0000 0.61120  0.35300  0.40420  Biso   1.000  H
  C11      1.0000 0.61120  0.34090  0.28650  Biso   1.000  C
  H15      1.0000 0.65610  0.32830  0.30850  Biso   1.000  H
  H16      1.0000 0.60740  0.40570  0.30480  Biso   1.000  H
  C12      1.0000 0.60520  0.34940  0.16670  Biso   1.000  C
  H17      1.0000 0.64880  0.34480  0.18790  Biso   1.000  H
  C13      1.0000 0.28700  0.42180  0.93160  Biso   1.000  C
  H18      1.0000 0.27410  0.35470  0.92620  Biso   1.000  H
  C14      1.0000 0.51580  0.35880  0.15480  Biso   1.000  C
  H19      1.0000 0.48510  0.36160  0.16590  Biso   1.000  H
  C15      1.0000 0.58220  0.22520  0.41890  Biso   1.000  C
  H20      1.0000 0.60110  0.23600  0.47120  Biso   1.000  H
  H21      1.0000 0.58500  0.15480  0.41010  Biso   1.000  H
  H22      1.0000 0.53830  0.24540  0.39150  Biso   1.000  H
  C16      1.0000 0.58680  0.26510  0.30960  Biso   1.000  C
  H23      1.0000 0.59930  0.19900  0.30240  Biso   1.000  H
  H24      1.0000 0.54060  0.26830  0.28050  Biso   1.000  H
  N4       1.0000 0.56280  0.35950  0.09540  Biso   1.000  N
  N5       1.0000 0.50360  0.36650  0.08670  Biso   1.000  N
  N6       1.0000 0.34520  0.44890  0.95680  Biso   1.000  N
  Cu3      1.0000 0.42453  0.62252  0.98821  Biso   1.000  Cu
  C17      1.0000 0.57870  0.65350  0.20600  Biso   1.000  C
  C18      1.0000 0.61450  0.71800  0.39560  Biso   1.000  C
  H25      1.0000 0.65920  0.73640  0.42520  Biso   1.000  H
  H26      1.0000 0.61120  0.64700  0.40420  Biso   1.000  H
  C19      1.0000 0.61120  0.65910  0.28650  Biso   1.000  C
  H27      1.0000 0.65610  0.67170  0.30850  Biso   1.000  H
  H28      1.0000 0.60740  0.59430  0.30480  Biso   1.000  H
  C20      1.0000 0.60520  0.65060  0.16670  Biso   1.000  C
  H29      1.0000 0.64880  0.65520  0.18790  Biso   1.000  H
  C21      1.0000 0.28700  0.57820  0.93160  Biso   1.000  C
  H30      1.0000 0.27410  0.64530  0.92620  Biso   1.000  H
  C22      1.0000 0.51580  0.64120  0.15480  Biso   1.000  C
  H31      1.0000 0.48510  0.63840  0.16590  Biso   1.000  H
  C23      1.0000 0.58220  0.77480  0.41890  Biso   1.000  C
  H32      1.0000 0.60110  0.76400  0.47120  Biso   1.000  H
  H33      1.0000 0.58500  0.84520  0.41010  Biso   1.000  H
  H34      1.0000 0.53830  0.75460  0.39150  Biso   1.000  H
  C24      1.0000 0.58680  0.73490  0.30960  Biso   1.000  C
  H35      1.0000 0.59930  0.80100  0.30240  Biso   1.000  H
  H36      1.0000 0.54060  0.73170  0.28050  Biso   1.000  H
  N7       1.0000 0.56280  0.64050  0.09540  Biso   1.000  N
  N8       1.0000 0.50360  0.63350  0.08670  Biso   1.000  N
  N9       1.0000 0.34520  0.55110  0.95680  Biso   1.000  N
  Cu4      1.0000 0.57547  0.62252  0.01179  Biso   1.000  Cu
  C25      1.0000 0.42130  0.65350  0.79400  Biso   1.000  C
  C26      1.0000 0.38550  0.71800  0.60440  Biso   1.000  C
  H37      1.0000 0.34080  0.73640  0.57480  Biso   1.000  H
  H38      1.0000 0.38880  0.64700  0.59580  Biso   1.000  H
  C27      1.0000 0.38880  0.65910  0.71350  Biso   1.000  C
  H39      1.0000 0.34390  0.67170  0.69150  Biso   1.000  H
  H40      1.0000 0.39260  0.59430  0.69520  Biso   1.000  H
  C28      1.0000 0.39480  0.65060  0.83330  Biso   1.000  C
  H41      1.0000 0.35120  0.65520  0.81210  Biso   1.000  H
  C29      1.0000 0.71300  0.57820  0.06840  Biso   1.000  C
  H42      1.0000 0.72590  0.64530  0.07380  Biso   1.000  H
  C30      1.0000 0.48420  0.64120  0.84520  Biso   1.000  C
  H43      1.0000 0.51490  0.63840  0.83410  Biso   1.000  H
  C31      1.0000 0.41780  0.77480  0.58110  Biso   1.000  C
  H44      1.0000 0.39890  0.76400  0.52880  Biso   1.000  H
  H45      1.0000 0.41500  0.84520  0.58990  Biso   1.000  H
  H46      1.0000 0.46170  0.75460  0.60850  Biso   1.000  H
  C32      1.0000 0.41320  0.73490  0.69040  Biso   1.000  C
  H47      1.0000 0.40070  0.80100  0.69760  Biso   1.000  H
  H48      1.0000 0.45940  0.73170  0.71950  Biso   1.000  H
  N10      1.0000 0.43720  0.64050  0.90460  Biso   1.000  N
  N11      1.0000 0.49640  0.63350  0.91330  Biso   1.000  N
  N12      1.0000 0.65480  0.55110  0.04320  Biso   1.000  N
  C33      1.0000 0.75220  0.50000  0.08580  Biso   1.000  C
  H49      1.0000 0.79560  0.50000  0.10510  Biso   1.000  H
  C34      1.0000 0.24780  0.50000  0.91420  Biso   1.000  C
  H50      1.0000 0.20440  0.50000  0.89490  Biso   1.000  H
  Cu5      1.0000 0.07547  0.87748  0.01179  Biso   1.000  Cu
  C35      1.0000 0.92130  0.84650  0.79400  Biso   1.000  C
  C36      1.0000 0.88550  0.78200  0.60440  Biso   1.000  C
  H51      1.0000 0.84080  0.76360  0.57480  Biso   1.000  H
  H52      1.0000 0.88880  0.85300  0.59580  Biso   1.000  H
  C37      1.0000 0.88880  0.84090  0.71350  Biso   1.000  C
  H53      1.0000 0.84390  0.82830  0.69150  Biso   1.000  H
  H54      1.0000 0.89260  0.90570  0.69520  Biso   1.000  H
  C38      1.0000 0.89480  0.84940  0.83330  Biso   1.000  C
  H55      1.0000 0.85120  0.84480  0.81210  Biso   1.000  H
  C39      1.0000 0.21300  0.92180  0.06840  Biso   1.000  C
  H56      1.0000 0.22590  0.85470  0.07380  Biso   1.000  H
  C40      1.0000 0.98420  0.85880  0.84520  Biso   1.000  C
  H57      1.0000 0.01490  0.86160  0.83410  Biso   1.000  H
  C41      1.0000 0.91780  0.72520  0.58110  Biso   1.000  C
  H58      1.0000 0.89890  0.73600  0.52880  Biso   1.000  H
  H59      1.0000 0.91500  0.65480  0.58990  Biso   1.000  H
  H60      1.0000 0.96170  0.74540  0.60850  Biso   1.000  H
  C42      1.0000 0.91320  0.76510  0.69040  Biso   1.000  C
  H61      1.0000 0.90070  0.69900  0.69760  Biso   1.000  H
  H62      1.0000 0.95940  0.76830  0.71950  Biso   1.000  H
  N13      1.0000 0.93720  0.85950  0.90460  Biso   1.000  N
  N14      1.0000 0.99640  0.86650  0.91330  Biso   1.000  N
  N15      1.0000 0.15480  0.94890  0.04320  Biso   1.000  N
  Cu6      1.0000 0.92453  0.87748  0.98821  Biso   1.000  Cu
  C43      1.0000 0.07870  0.84650  0.20600  Biso   1.000  C
  C44      1.0000 0.11450  0.78200  0.39560  Biso   1.000  C
  H63      1.0000 0.15920  0.76360  0.42520  Biso   1.000  H
  H64      1.0000 0.11120  0.85300  0.40420  Biso   1.000  H
  C45      1.0000 0.11120  0.84090  0.28650  Biso   1.000  C
  H65      1.0000 0.15610  0.82830  0.30850  Biso   1.000  H
  H66      1.0000 0.10740  0.90570  0.30480  Biso   1.000  H
  C46      1.0000 0.10520  0.84940  0.16670  Biso   1.000  C
  H67      1.0000 0.14880  0.84480  0.18790  Biso   1.000  H
  C47      1.0000 0.78700  0.92180  0.93160  Biso   1.000  C
  H68      1.0000 0.77410  0.85470  0.92620  Biso   1.000  H
  C48      1.0000 0.01580  0.85880  0.15480  Biso   1.000  C
  H69      1.0000 0.98510  0.86160  0.16590  Biso   1.000  H
  C49      1.0000 0.08220  0.72520  0.41890  Biso   1.000  C
  H70      1.0000 0.10110  0.73600  0.47120  Biso   1.000  H
  H71      1.0000 0.08500  0.65480  0.41010  Biso   1.000  H
  H72      1.0000 0.03830  0.74540  0.39150  Biso   1.000  H
  C50      1.0000 0.08680  0.76510  0.30960  Biso   1.000  C
  H73      1.0000 0.09930  0.69900  0.30240  Biso   1.000  H
  H74      1.0000 0.04060  0.76830  0.28050  Biso   1.000  H
  N16      1.0000 0.06280  0.85950  0.09540  Biso   1.000  N
  N17      1.0000 0.00360  0.86650  0.08670  Biso   1.000  N
  N18      1.0000 0.84520  0.94890  0.95680  Biso   1.000  N
  Cu7      1.0000 0.92453  0.12252  0.98821  Biso   1.000  Cu
  C51      1.0000 0.07870  0.15350  0.20600  Biso   1.000  C
  C52      1.0000 0.11450  0.21800  0.39560  Biso   1.000  C
  H75      1.0000 0.15920  0.23640  0.42520  Biso   1.000  H
  H76      1.0000 0.11120  0.14700  0.40420  Biso   1.000  H
  C53      1.0000 0.11120  0.15910  0.28650  Biso   1.000  C
  H77      1.0000 0.15610  0.17170  0.30850  Biso   1.000  H
  H78      1.0000 0.10740  0.09430  0.30480  Biso   1.000  H
  C54      1.0000 0.10520  0.15060  0.16670  Biso   1.000  C
  H79      1.0000 0.14880  0.15520  0.18790  Biso   1.000  H
  C55      1.0000 0.78700  0.07820  0.93160  Biso   1.000  C
  H80      1.0000 0.77410  0.14530  0.92620  Biso   1.000  H
  C56      1.0000 0.01580  0.14120  0.15480  Biso   1.000  C
  H81      1.0000 0.98510  0.13840  0.16590  Biso   1.000  H
  C57      1.0000 0.08220  0.27480  0.41890  Biso   1.000  C
  H82      1.0000 0.10110  0.26400  0.47120  Biso   1.000  H
  H83      1.0000 0.08500  0.34520  0.41010  Biso   1.000  H
  H84      1.0000 0.03830  0.25460  0.39150  Biso   1.000  H
  C58      1.0000 0.08680  0.23490  0.30960  Biso   1.000  C
  H85      1.0000 0.09930  0.30100  0.30240  Biso   1.000  H
  H86      1.0000 0.04060  0.23170  0.28050  Biso   1.000  H
  N19      1.0000 0.06280  0.14050  0.09540  Biso   1.000  N
  N20      1.0000 0.00360  0.13350  0.08670  Biso   1.000  N
  N21      1.0000 0.84520  0.05110  0.95680  Biso   1.000  N
  Cu8      1.0000 0.07547  0.12252  0.01179  Biso   1.000  Cu
  C59      1.0000 0.92130  0.15350  0.79400  Biso   1.000  C
  C60      1.0000 0.88550  0.21800  0.60440  Biso   1.000  C
  H87      1.0000 0.84080  0.23640  0.57480  Biso   1.000  H
  H88      1.0000 0.88880  0.14700  0.59580  Biso   1.000  H
  C61      1.0000 0.88880  0.15910  0.71350  Biso   1.000  C
  H89      1.0000 0.84390  0.17170  0.69150  Biso   1.000  H
  H90      1.0000 0.89260  0.09430  0.69520  Biso   1.000  H
  C62      1.0000 0.89480  0.15060  0.83330  Biso   1.000  C
  H91      1.0000 0.85120  0.15520  0.81210  Biso   1.000  H
  C63      1.0000 0.21300  0.07820  0.06840  Biso   1.000  C
  H92      1.0000 0.22590  0.14530  0.07380  Biso   1.000  H
  C64      1.0000 0.98420  0.14120  0.84520  Biso   1.000  C
  H93      1.0000 0.01490  0.13840  0.83410  Biso   1.000  H
  C65      1.0000 0.91780  0.27480  0.58110  Biso   1.000  C
  H94      1.0000 0.89890  0.26400  0.52880  Biso   1.000  H
  H95      1.0000 0.91500  0.34520  0.58990  Biso   1.000  H
  H96      1.0000 0.96170  0.25460  0.60850  Biso   1.000  H
  C66      1.0000 0.91320  0.23490  0.69040  Biso   1.000  C
  H97      1.0000 0.90070  0.30100  0.69760  Biso   1.000  H
  H98      1.0000 0.95940  0.23170  0.71950  Biso   1.000  H
  N22      1.0000 0.93720  0.14050  0.90460  Biso   1.000  N
  N23      1.0000 0.99640  0.13350  0.91330  Biso   1.000  N
  N24      1.0000 0.15480  0.05110  0.04320  Biso   1.000  N
  C67      1.0000 0.25220  0.00000  0.08580  Biso   1.000  C
  H99      1.0000 0.29560  0.00000  0.10510  Biso   1.000  H
  C68      1.0000 0.74780  0.00000  0.91420  Biso   1.000  C
  H100     1.0000 0.70440  0.00000  0.89490  Biso   1.000  H
  Cu9      1.0000 0.92216  0.86665  0.41452  Biso   1.000  Cu
  O1       1.0000 0.81510  0.09390  0.30710  Biso   1.000  O
  O2       1.0000 0.83360  0.22050  0.20790  Biso   1.000  O
  O3       1.0000 0.91970  0.09890  0.20980  Biso   1.000  O
  O4       1.0000 0.95080  0.89990  0.34950  Biso   1.000  O
  O5       1.0000 0.72130  0.21750  0.18290  Biso   1.000  O
  O6       1.0000 0.74390  0.12080  0.09640  Biso   1.000  O
  O7       1.0000 0.62260  0.09900  0.14380  Biso   1.000  O
  O8       1.0000 0.88540  0.73970  0.35310  Biso   1.000  O
  O9       1.0000 0.86270  0.83750  0.44390  Biso   1.000  O
  O10      1.0000 0.69338  0.90230  0.29200  Biso   1.000  O
  O11      1.0000 0.76710  0.74170  0.32470  Biso   1.000  O
  W1       1.0000 0.77568  0.85914  0.38209  Biso   1.000  W
  W2       1.0000 0.80459  0.26781  0.26770  Biso   1.000  W
  W3       1.0000 0.67240  0.12932  0.10412  Biso   1.000  W
  W4       1.0000 0.83337  0.12848  0.13895  Biso   1.000  W
  Cu10     1.0000 0.07784  0.86665  0.58548  Biso   1.000  Cu
  O12      1.0000 0.18490  0.09390  0.69290  Biso   1.000  O
  O13      1.0000 0.16640  0.22050  0.79210  Biso   1.000  O
  O14      1.0000 0.08030  0.09890  0.79020  Biso   1.000  O
  O15      1.0000 0.04920  0.89990  0.65050  Biso   1.000  O
  O16      1.0000 0.27870  0.21750  0.81710  Biso   1.000  O
  O17      1.0000 0.25610  0.12080  0.90360  Biso   1.000  O
  O18      1.0000 0.37740  0.09900  0.85620  Biso   1.000  O
  O19      1.0000 0.11460  0.73970  0.64690  Biso   1.000  O
  O20      1.0000 0.13730  0.83750  0.55610  Biso   1.000  O
  O21      1.0000 0.30662  0.90230  0.70800  Biso   1.000  O
  O22      1.0000 0.23290  0.74170  0.67530  Biso   1.000  O
  W5       1.0000 0.22432  0.85914  0.61791  Biso   1.000  W
  W6       1.0000 0.19541  0.26781  0.73230  Biso   1.000  W
  W7       1.0000 0.32760  0.12932  0.89588  Biso   1.000  W
  W8       1.0000 0.16663  0.12848  0.86105  Biso   1.000  W
  Cu11     1.0000 0.07784  0.13335  0.58548  Biso   1.000  Cu
  O23      1.0000 0.18490  0.90610  0.69290  Biso   1.000  O
  O24      1.0000 0.16640  0.77950  0.79210  Biso   1.000  O
  O25      1.0000 0.08030  0.90110  0.79020  Biso   1.000  O
  O26      1.0000 0.04920  0.10010  0.65050  Biso   1.000  O
  O27      1.0000 0.27870  0.78250  0.81710  Biso   1.000  O
  O28      1.0000 0.25610  0.87920  0.90360  Biso   1.000  O
  O29      1.0000 0.37740  0.90100  0.85620  Biso   1.000  O
  O30      1.0000 0.11460  0.26030  0.64690  Biso   1.000  O
  O31      1.0000 0.13730  0.16250  0.55610  Biso   1.000  O
  O32      1.0000 0.30662  0.09770  0.70800  Biso   1.000  O
  O33      1.0000 0.23290  0.25830  0.67530  Biso   1.000  O
  W9       1.0000 0.22432  0.14086  0.61791  Biso   1.000  W
  W10      1.0000 0.19541  0.73219  0.73230  Biso   1.000  W
  W11      1.0000 0.32760  0.87068  0.89588  Biso   1.000  W
  W12      1.0000 0.16663  0.87152  0.86105  Biso   1.000  W
  Cu12     1.0000 0.92216  0.13335  0.41452  Biso   1.000  Cu
  O34      1.0000 0.81510  0.90610  0.30710  Biso   1.000  O
  O35      1.0000 0.83360  0.77950  0.20790  Biso   1.000  O
  O36      1.0000 0.91970  0.90110  0.20980  Biso   1.000  O
  O37      1.0000 0.95080  0.10010  0.34950  Biso   1.000  O
  O38      1.0000 0.72130  0.78250  0.18290  Biso   1.000  O
  O39      1.0000 0.74390  0.87920  0.09640  Biso   1.000  O
  O40      1.0000 0.62260  0.90100  0.14380  Biso   1.000  O
  O41      1.0000 0.88540  0.26030  0.35310  Biso   1.000  O
  O42      1.0000 0.86270  0.16250  0.44390  Biso   1.000  O
  O43      1.0000 0.69338  0.09770  0.29200  Biso   1.000  O
  O44      1.0000 0.76710  0.25830  0.32470  Biso   1.000  O
  W13      1.0000 0.77568  0.14086  0.38209  Biso   1.000  W
  W14      1.0000 0.80459  0.73219  0.26770  Biso   1.000  W
  W15      1.0000 0.67240  0.87068  0.10412  Biso   1.000  W
  W16      1.0000 0.83337  0.87152  0.13895  Biso   1.000  W
  P1       1.0000 0.79973  0.00000  0.25969  Biso   1.000  P
  O45      1.0000 0.83710  0.00000  0.22510  Biso   1.000  O
  O46      1.0000 0.72920  0.00000  0.19770  Biso   1.000  O
  O47      1.0000 0.78430  0.00000  0.40540  Biso   1.000  O
  O48      1.0000 0.64490  0.00000  0.05420  Biso   1.000  O
  O49      1.0000 0.93050  0.00000  0.44220  Biso   1.000  O
  O50      1.0000 0.82530  0.00000  0.09420  Biso   1.000  O
  W17      1.0000 0.64354  0.00000  0.22060  Biso   1.000  W
  W18      1.0000 0.95428  0.00000  0.29276  Biso   1.000  W
  P2       1.0000 0.20027  0.00000  0.74031  Biso   1.000  P
  O51      1.0000 0.16290  0.00000  0.77490  Biso   1.000  O
  O52      1.0000 0.27080  0.00000  0.80230  Biso   1.000  O
  O53      1.0000 0.21570  0.00000  0.59460  Biso   1.000  O
  O54      1.0000 0.35510  0.00000  0.94580  Biso   1.000  O
  O55      1.0000 0.06950  0.00000  0.55780  Biso   1.000  O
  O56      1.0000 0.17470  0.00000  0.90580  Biso   1.000  O
  W19      1.0000 0.35646  0.00000  0.77940  Biso   1.000  W
  W20      1.0000 0.04572  0.00000  0.70724  Biso   1.000  W
  O57      1.0000 0.00000  0.81060  0.50000  Biso   1.000  O
  O58      1.0000 0.00000  0.18940  0.50000  Biso   1.000  O
  Cu13     1.0000 0.42216  0.36665  0.41452  Biso   1.000  Cu
  O59      1.0000 0.31510  0.59390  0.30710  Biso   1.000  O
  O60      1.0000 0.33360  0.72050  0.20790  Biso   1.000  O
  O61      1.0000 0.41970  0.59890  0.20980  Biso   1.000  O
  O62      1.0000 0.45080  0.39990  0.34950  Biso   1.000  O
  O63      1.0000 0.22130  0.71750  0.18290  Biso   1.000  O
  O64      1.0000 0.24390  0.62080  0.09640  Biso   1.000  O
  O65      1.0000 0.12260  0.59900  0.14380  Biso   1.000  O
  O66      1.0000 0.38540  0.23970  0.35310  Biso   1.000  O
  O67      1.0000 0.36270  0.33750  0.44390  Biso   1.000  O
  O68      1.0000 0.19338  0.40230  0.29200  Biso   1.000  O
  O69      1.0000 0.26710  0.24170  0.32470  Biso   1.000  O
  W21      1.0000 0.27568  0.35914  0.38209  Biso   1.000  W
  W22      1.0000 0.30459  0.76781  0.26770  Biso   1.000  W
  W23      1.0000 0.17240  0.62932  0.10412  Biso   1.000  W
  W24      1.0000 0.33337  0.62848  0.13895  Biso   1.000  W
  Cu14     1.0000 0.57784  0.36665  0.58548  Biso   1.000  Cu
  O70      1.0000 0.68490  0.59390  0.69290  Biso   1.000  O
  O71      1.0000 0.66640  0.72050  0.79210  Biso   1.000  O
  O72      1.0000 0.58030  0.59890  0.79020  Biso   1.000  O
  O73      1.0000 0.54920  0.39990  0.65050  Biso   1.000  O
  O74      1.0000 0.77870  0.71750  0.81710  Biso   1.000  O
  O75      1.0000 0.75610  0.62080  0.90360  Biso   1.000  O
  O76      1.0000 0.87740  0.59900  0.85620  Biso   1.000  O
  O77      1.0000 0.61460  0.23970  0.64690  Biso   1.000  O
  O78      1.0000 0.63730  0.33750  0.55610  Biso   1.000  O
  O79      1.0000 0.80662  0.40230  0.70800  Biso   1.000  O
  O80      1.0000 0.73290  0.24170  0.67530  Biso   1.000  O
  W25      1.0000 0.72432  0.35914  0.61791  Biso   1.000  W
  W26      1.0000 0.69541  0.76781  0.73230  Biso   1.000  W
  W27      1.0000 0.82760  0.62932  0.89588  Biso   1.000  W
  W28      1.0000 0.66663  0.62848  0.86105  Biso   1.000  W
  Cu15     1.0000 0.57784  0.63335  0.58548  Biso   1.000  Cu
  O81      1.0000 0.68490  0.40610  0.69290  Biso   1.000  O
  O82      1.0000 0.66640  0.27950  0.79210  Biso   1.000  O
  O83      1.0000 0.58030  0.40110  0.79020  Biso   1.000  O
  O84      1.0000 0.54920  0.60010  0.65050  Biso   1.000  O
  O85      1.0000 0.77870  0.28250  0.81710  Biso   1.000  O
  O86      1.0000 0.75610  0.37920  0.90360  Biso   1.000  O
  O87      1.0000 0.87740  0.40100  0.85620  Biso   1.000  O
  O88      1.0000 0.61460  0.76030  0.64690  Biso   1.000  O
  O89      1.0000 0.63730  0.66250  0.55610  Biso   1.000  O
  O90      1.0000 0.80662  0.59770  0.70800  Biso   1.000  O
  O91      1.0000 0.73290  0.75830  0.67530  Biso   1.000  O
  W29      1.0000 0.72432  0.64086  0.61791  Biso   1.000  W
  W30      1.0000 0.69541  0.23219  0.73230  Biso   1.000  W
  W31      1.0000 0.82760  0.37068  0.89588  Biso   1.000  W
  W32      1.0000 0.66663  0.37152  0.86105  Biso   1.000  W
  Cu16     1.0000 0.42216  0.63335  0.41452  Biso   1.000  Cu
  O92      1.0000 0.31510  0.40610  0.30710  Biso   1.000  O
  O93      1.0000 0.33360  0.27950  0.20790  Biso   1.000  O
  O94      1.0000 0.41970  0.40110  0.20980  Biso   1.000  O
  O95      1.0000 0.45080  0.60010  0.34950  Biso   1.000  O
  O96      1.0000 0.22130  0.28250  0.18290  Biso   1.000  O
  O97      1.0000 0.24390  0.37920  0.09640  Biso   1.000  O
  O98      1.0000 0.12260  0.40100  0.14380  Biso   1.000  O
  O99      1.0000 0.38540  0.76030  0.35310  Biso   1.000  O
  O100     1.0000 0.36270  0.66250  0.44390  Biso   1.000  O
  O101     1.0000 0.19338  0.59770  0.29200  Biso   1.000  O
  O102     1.0000 0.26710  0.75830  0.32470  Biso   1.000  O
  W33      1.0000 0.27568  0.64086  0.38209  Biso   1.000  W
  W34      1.0000 0.30459  0.23219  0.26770  Biso   1.000  W
  W35      1.0000 0.17240  0.37068  0.10412  Biso   1.000  W
  W36      1.0000 0.33337  0.37152  0.13895  Biso   1.000  W
  P3       1.0000 0.29973  0.50000  0.25969  Biso   1.000  P
  O103     1.0000 0.33710  0.50000  0.22510  Biso   1.000  O
  O104     1.0000 0.22920  0.50000  0.19770  Biso   1.000  O
  O105     1.0000 0.28430  0.50000  0.40540  Biso   1.000  O
  O106     1.0000 0.14490  0.50000  0.05420  Biso   1.000  O
  O107     1.0000 0.43050  0.50000  0.44220  Biso   1.000  O
  O108     1.0000 0.32530  0.50000  0.09420  Biso   1.000  O
  W37      1.0000 0.14354  0.50000  0.22060  Biso   1.000  W
  W38      1.0000 0.45428  0.50000  0.29276  Biso   1.000  W
  P4       1.0000 0.70027  0.50000  0.74031  Biso   1.000  P
  O109     1.0000 0.66290  0.50000  0.77490  Biso   1.000  O
  O110     1.0000 0.77080  0.50000  0.80230  Biso   1.000  O
  O111     1.0000 0.71570  0.50000  0.59460  Biso   1.000  O
  O112     1.0000 0.85510  0.50000  0.94580  Biso   1.000  O
  O113     1.0000 0.56950  0.50000  0.55780  Biso   1.000  O
  O114     1.0000 0.67470  0.50000  0.90580  Biso   1.000  O
  W39      1.0000 0.85646  0.50000  0.77940  Biso   1.000  W
  W40      1.0000 0.54572  0.50000  0.70724  Biso   1.000  W
  O115     1.0000 0.50000  0.31060  0.50000  Biso   1.000  O
  O116     1.0000 0.50000  0.68940  0.50000  Biso   1.000  O
