data_image0
_cell_length_a       10.013
_cell_length_b       18.617
_cell_length_c       21.2365
_cell_angle_alpha    90
_cell_angle_beta     91.844
_cell_angle_gamma    90

_symmetry_space_group_name_H-M    "P 1"
_symmetry_int_tables_number       1

loop_
  _symmetry_equiv_pos_as_xyz
  'x, y, z'

loop_
  _atom_site_label
  _atom_site_occupancy
  _atom_site_fract_x
  _atom_site_fract_y
  _atom_site_fract_z
  _atom_site_thermal_displace_type
  _atom_site_B_iso_or_equiv
  _atom_site_type_symbol
  Cd1      1.0000 0.91779  0.39542  0.22708  Biso   1.000  Cd
  Cd2      1.0000 0.30488  0.37400  0.32806  Biso   1.000  Cd
  Cd3      1.0000 0.31395  0.32685  0.14642  Biso   1.000  Cd
  O1       1.0000 0.05660  0.37560  0.31220  Biso   1.000  O
  O2       1.0000 0.14990  0.32730  0.39620  Biso   1.000  O
  O3       1.0000 0.80340  0.35230  0.35930  Biso   1.000  O
  O4       1.0000 0.46590  0.31300  0.39510  Biso   1.000  O
  O5       1.0000 0.30830  0.28660  0.25270  Biso   1.000  O
  O6       1.0000 0.46320  0.30090  0.06340  Biso   1.000  O
  O7       1.0000 0.06150  0.34470  0.16010  Biso   1.000  O
  O8       1.0000 0.80380  0.32280  0.10940  Biso   1.000  O
  O9       1.0000 0.14490  0.30730  0.07140  Biso   1.000  O
  O10      1.0000 0.31520  0.44570  0.14250  Biso   1.000  O
  O11      1.0000 0.28660  0.45410  0.24550  Biso   1.000  O
  O12      1.0000 0.25580  0.59840  0.23640  Biso   1.000  O
  C1       1.0000 0.04760  0.34390  0.36330  Biso   1.000  C
  C2       1.0000 0.91590  0.32550  0.38890  Biso   1.000  C
  C3       1.0000 0.69860  0.32350  0.39070  Biso   1.000  C
  C4       1.0000 0.56140  0.34320  0.36760  Biso   1.000  C
  C5       1.0000 0.56100  0.31280  0.09830  Biso   1.000  C
  O13      1.0000 0.55190  0.32880  0.15620  Biso   1.000  O
  C6       1.0000 0.69630  0.30430  0.07200  Biso   1.000  C
  C7       1.0000 0.73630  0.28190  0.01580  Biso   1.000  C
  H1       1.0000 0.68160  0.26760  0.98190  Biso   1.000  H
  C8       1.0000 0.87680  0.28390  0.01780  Biso   1.000  C
  H2       1.0000 0.93280  0.26960  0.98600  Biso   1.000  H
  C9       1.0000 0.91410  0.31040  0.07430  Biso   1.000  C
  C10      1.0000 0.04770  0.32260  0.10450  Biso   1.000  C
  O14      1.0000 0.28790  0.20500  0.17880  Biso   1.000  O
  C11      1.0000 0.28760  0.22200  0.23520  Biso   1.000  C
  C12      1.0000 0.23620  0.66760  0.21560  Biso   1.000  C
  C13      1.0000 0.29370  0.47940  0.19200  Biso   1.000  C
  C14      1.0000 0.27460  0.55750  0.18370  Biso   1.000  C
  C15      1.0000 0.24210  0.67040  0.15280  Biso   1.000  C
  H3       1.0000 0.23090  0.71110  0.12790  Biso   1.000  H
  C16      1.0000 0.26840  0.60060  0.13140  Biso   1.000  C
  H4       1.0000 0.27950  0.58640  0.08980  Biso   1.000  H
  O15      1.0000 0.54560  0.38660  0.32490  Biso   1.000  O
  C17      1.0000 0.74440  0.28370  0.43940  Biso   1.000  C
  H5       1.0000 0.69280  0.25940  0.46820  Biso   1.000  H
  C18      1.0000 0.88360  0.28520  0.43890  Biso   1.000  C
  H6       1.0000 0.94250  0.26290  0.46740  Biso   1.000  H
  Cd4      1.0000 0.58221  0.89542  0.27292  Biso   1.000  Cd
  Cd5      1.0000 0.19512  0.87400  0.17194  Biso   1.000  Cd
  Cd6      1.0000 0.18605  0.82685  0.35358  Biso   1.000  Cd
  O16      1.0000 0.44340  0.87560  0.18780  Biso   1.000  O
  O17      1.0000 0.35010  0.82730  0.10380  Biso   1.000  O
  O18      1.0000 0.69660  0.85230  0.14070  Biso   1.000  O
  O19      1.0000 0.03410  0.81300  0.10490  Biso   1.000  O
  O20      1.0000 0.19170  0.78660  0.24730  Biso   1.000  O
  O21      1.0000 0.03680  0.80090  0.43660  Biso   1.000  O
  O22      1.0000 0.43850  0.84470  0.33990  Biso   1.000  O
  O23      1.0000 0.69620  0.82280  0.39060  Biso   1.000  O
  O24      1.0000 0.35510  0.80730  0.42860  Biso   1.000  O
  O25      1.0000 0.18480  0.94570  0.35750  Biso   1.000  O
  O26      1.0000 0.21340  0.95410  0.25450  Biso   1.000  O
  O27      1.0000 0.24420  0.09840  0.26360  Biso   1.000  O
  C19      1.0000 0.45240  0.84390  0.13670  Biso   1.000  C
  C20      1.0000 0.58410  0.82550  0.11110  Biso   1.000  C
  C21      1.0000 0.80140  0.82350  0.10930  Biso   1.000  C
  C22      1.0000 0.93860  0.84320  0.13240  Biso   1.000  C
  C23      1.0000 0.93900  0.81280  0.40170  Biso   1.000  C
  O28      1.0000 0.94810  0.82880  0.34380  Biso   1.000  O
  C24      1.0000 0.80370  0.80430  0.42800  Biso   1.000  C
  C25      1.0000 0.76370  0.78190  0.48420  Biso   1.000  C
  H7       1.0000 0.81840  0.76760  0.51810  Biso   1.000  H
  C26      1.0000 0.62320  0.78390  0.48220  Biso   1.000  C
  H8       1.0000 0.56720  0.76960  0.51400  Biso   1.000  H
  C27      1.0000 0.58590  0.81040  0.42570  Biso   1.000  C
  C28      1.0000 0.45230  0.82260  0.39550  Biso   1.000  C
  O29      1.0000 0.21210  0.70500  0.32120  Biso   1.000  O
  C29      1.0000 0.21240  0.72200  0.26480  Biso   1.000  C
  C30      1.0000 0.26380  0.16760  0.28440  Biso   1.000  C
  C31      1.0000 0.20630  0.97940  0.30800  Biso   1.000  C
  C32      1.0000 0.22540  0.05750  0.31630  Biso   1.000  C
  C33      1.0000 0.25790  0.17040  0.34720  Biso   1.000  C
  H9       1.0000 0.26910  0.21110  0.37210  Biso   1.000  H
  C34      1.0000 0.23160  0.10060  0.36860  Biso   1.000  C
  H10      1.0000 0.22050  0.08640  0.41020  Biso   1.000  H
  O30      1.0000 0.95440  0.88660  0.17510  Biso   1.000  O
  C35      1.0000 0.75560  0.78370  0.06060  Biso   1.000  C
  H11      1.0000 0.80720  0.75940  0.03180  Biso   1.000  H
  C36      1.0000 0.61640  0.78520  0.06110  Biso   1.000  C
  H12      1.0000 0.55750  0.76290  0.03260  Biso   1.000  H
  Cd7      1.0000 0.08221  0.60458  0.77292  Biso   1.000  Cd
  Cd8      1.0000 0.69512  0.62600  0.67194  Biso   1.000  Cd
  Cd9      1.0000 0.68605  0.67315  0.85358  Biso   1.000  Cd
  O31      1.0000 0.94340  0.62440  0.68780  Biso   1.000  O
  O32      1.0000 0.85010  0.67270  0.60380  Biso   1.000  O
  O33      1.0000 0.19660  0.64770  0.64070  Biso   1.000  O
  O34      1.0000 0.53410  0.68700  0.60490  Biso   1.000  O
  O35      1.0000 0.69170  0.71340  0.74730  Biso   1.000  O
  O36      1.0000 0.53680  0.69910  0.93660  Biso   1.000  O
  O37      1.0000 0.93850  0.65530  0.83990  Biso   1.000  O
  O38      1.0000 0.19620  0.67720  0.89060  Biso   1.000  O
  O39      1.0000 0.85510  0.69270  0.92860  Biso   1.000  O
  O40      1.0000 0.68480  0.55430  0.85750  Biso   1.000  O
  O41      1.0000 0.71340  0.54590  0.75450  Biso   1.000  O
  O42      1.0000 0.74420  0.40160  0.76360  Biso   1.000  O
  C37      1.0000 0.95240  0.65610  0.63670  Biso   1.000  C
  C38      1.0000 0.08410  0.67450  0.61110  Biso   1.000  C
  C39      1.0000 0.30140  0.67650  0.60930  Biso   1.000  C
  C40      1.0000 0.43860  0.65680  0.63240  Biso   1.000  C
  C41      1.0000 0.43900  0.68720  0.90170  Biso   1.000  C
  O43      1.0000 0.44810  0.67120  0.84380  Biso   1.000  O
  C42      1.0000 0.30370  0.69570  0.92800  Biso   1.000  C
  C43      1.0000 0.26370  0.71810  0.98420  Biso   1.000  C
  H13      1.0000 0.31840  0.73240  0.01810  Biso   1.000  H
  C44      1.0000 0.12320  0.71610  0.98220  Biso   1.000  C
  H14      1.0000 0.06720  0.73040  0.01400  Biso   1.000  H
  C45      1.0000 0.08590  0.68960  0.92570  Biso   1.000  C
  C46      1.0000 0.95230  0.67740  0.89550  Biso   1.000  C
  O44      1.0000 0.71210  0.79500  0.82120  Biso   1.000  O
  C47      1.0000 0.71240  0.77800  0.76480  Biso   1.000  C
  C48      1.0000 0.76380  0.33240  0.78440  Biso   1.000  C
  C49      1.0000 0.70630  0.52060  0.80800  Biso   1.000  C
  C50      1.0000 0.72540  0.44250  0.81630  Biso   1.000  C
  C51      1.0000 0.75790  0.32960  0.84720  Biso   1.000  C
  H15      1.0000 0.76910  0.28890  0.87210  Biso   1.000  H
  C52      1.0000 0.73160  0.39940  0.86860  Biso   1.000  C
  H16      1.0000 0.72050  0.41360  0.91020  Biso   1.000  H
  O45      1.0000 0.45440  0.61340  0.67510  Biso   1.000  O
  C53      1.0000 0.25560  0.71630  0.56060  Biso   1.000  C
  H17      1.0000 0.30720  0.74060  0.53180  Biso   1.000  H
  C54      1.0000 0.11640  0.71480  0.56110  Biso   1.000  C
  H18      1.0000 0.05750  0.73710  0.53260  Biso   1.000  H
  Cd10     1.0000 0.41779  0.10458  0.72708  Biso   1.000  Cd
  Cd11     1.0000 0.80488  0.12600  0.82806  Biso   1.000  Cd
  Cd12     1.0000 0.81395  0.17315  0.64642  Biso   1.000  Cd
  O46      1.0000 0.55660  0.12440  0.81220  Biso   1.000  O
  O47      1.0000 0.64990  0.17270  0.89620  Biso   1.000  O
  O48      1.0000 0.30340  0.14770  0.85930  Biso   1.000  O
  O49      1.0000 0.96590  0.18700  0.89510  Biso   1.000  O
  O50      1.0000 0.80830  0.21340  0.75270  Biso   1.000  O
  O51      1.0000 0.96320  0.19910  0.56340  Biso   1.000  O
  O52      1.0000 0.56150  0.15530  0.66010  Biso   1.000  O
  O53      1.0000 0.30380  0.17720  0.60940  Biso   1.000  O
  O54      1.0000 0.64490  0.19270  0.57140  Biso   1.000  O
  O55      1.0000 0.81520  0.05430  0.64250  Biso   1.000  O
  O56      1.0000 0.78660  0.04590  0.74550  Biso   1.000  O
  O57      1.0000 0.75580  0.90160  0.73640  Biso   1.000  O
  C55      1.0000 0.54760  0.15610  0.86330  Biso   1.000  C
  C56      1.0000 0.41590  0.17450  0.88890  Biso   1.000  C
  C57      1.0000 0.19860  0.17650  0.89070  Biso   1.000  C
  C58      1.0000 0.06140  0.15680  0.86760  Biso   1.000  C
  C59      1.0000 0.06100  0.18720  0.59830  Biso   1.000  C
  O58      1.0000 0.05190  0.17120  0.65620  Biso   1.000  O
  C60      1.0000 0.19630  0.19570  0.57200  Biso   1.000  C
  C61      1.0000 0.23630  0.21810  0.51580  Biso   1.000  C
  H19      1.0000 0.18160  0.23240  0.48190  Biso   1.000  H
  C62      1.0000 0.37680  0.21610  0.51780  Biso   1.000  C
  H20      1.0000 0.43280  0.23040  0.48600  Biso   1.000  H
  C63      1.0000 0.41410  0.18960  0.57430  Biso   1.000  C
  C64      1.0000 0.54770  0.17740  0.60450  Biso   1.000  C
  O59      1.0000 0.78790  0.29500  0.67880  Biso   1.000  O
  C65      1.0000 0.78760  0.27800  0.73520  Biso   1.000  C
  C66      1.0000 0.73620  0.83240  0.71560  Biso   1.000  C
  C67      1.0000 0.79370  0.02060  0.69200  Biso   1.000  C
  C68      1.0000 0.77460  0.94250  0.68370  Biso   1.000  C
  C69      1.0000 0.74210  0.82960  0.65280  Biso   1.000  C
  H21      1.0000 0.73090  0.78890  0.62790  Biso   1.000  H
  C70      1.0000 0.76840  0.89940  0.63140  Biso   1.000  C
  H22      1.0000 0.77950  0.91360  0.58980  Biso   1.000  H
  O60      1.0000 0.04560  0.11340  0.82490  Biso   1.000  O
  C71      1.0000 0.24440  0.21630  0.93940  Biso   1.000  C
  H23      1.0000 0.19280  0.24060  0.96820  Biso   1.000  H
  C72      1.0000 0.38360  0.21480  0.93890  Biso   1.000  C
  H24      1.0000 0.44250  0.23710  0.96740  Biso   1.000  H
