data_image0
_cell_length_a       22.085
_cell_length_b       11.394
_cell_length_c       20.578
_cell_angle_alpha    90
_cell_angle_beta     111.243
_cell_angle_gamma    90

_symmetry_space_group_name_H-M    "P 1"
_symmetry_int_tables_number       1

loop_
  _symmetry_equiv_pos_as_xyz
  'x, y, z'

loop_
  _atom_site_label
  _atom_site_occupancy
  _atom_site_fract_x
  _atom_site_fract_y
  _atom_site_fract_z
  _atom_site_thermal_displace_type
  _atom_site_B_iso_or_equiv
  _atom_site_type_symbol
  Eu1      1.0000 0.40241  0.46086  0.69677  Biso   1.000  Eu
  F1       1.0000 0.42330  0.07630  0.80540  Biso   1.000  F
  F2       1.0000 0.42210  0.84510  0.80340  Biso   1.000  F
  F3       1.0000 0.49910  0.68770  0.58023  Biso   1.000  F
  F4       1.0000 0.54249  0.28850  0.55832  Biso   1.000  F
  O1       1.0000 0.44545  0.26740  0.72713  Biso   1.000  O
  O2       1.0000 0.44544  0.65480  0.72330  Biso   1.000  O
  O3       1.0000 0.50435  0.46300  0.68012  Biso   1.000  O
  O4       1.0000 0.60474  0.47210  0.68493  Biso   1.000  O
  O5       1.0000 0.37840  0.34790  0.58610  Biso   1.000  O
  O6       1.0000 0.35480  0.42220  0.48300  Biso   1.000  O
  O7       1.0000 0.37200  0.53420  0.57318  Biso   1.000  O
  N1       1.0000 0.36810  0.43490  0.54570  Biso   1.000  N
  C1       1.0000 0.46070  0.02070  0.77600  Biso   1.000  C
  C2       1.0000 0.46070  0.90070  0.77600  Biso   1.000  C
  C3       1.0000 0.54610  0.47350  0.65160  Biso   1.000  C
  C4       1.0000 0.52160  0.48760  0.57300  Biso   1.000  C
  C5       1.0000 0.49970  0.59310  0.54150  Biso   1.000  C
  C6       1.0000 0.52170  0.39330  0.53050  Biso   1.000  C
  Eu2      1.0000 0.59759  0.46086  0.80323  Biso   1.000  Eu
  F5       1.0000 0.57670  0.07630  0.69460  Biso   1.000  F
  F6       1.0000 0.57790  0.84510  0.69660  Biso   1.000  F
  F7       1.0000 0.50090  0.68770  0.91977  Biso   1.000  F
  F8       1.0000 0.45751  0.28850  0.94168  Biso   1.000  F
  O8       1.0000 0.55455  0.26740  0.77287  Biso   1.000  O
  O9       1.0000 0.55456  0.65480  0.77670  Biso   1.000  O
  O10      1.0000 0.49565  0.46300  0.81988  Biso   1.000  O
  O11      1.0000 0.39526  0.47210  0.81507  Biso   1.000  O
  O12      1.0000 0.62160  0.34790  0.91390  Biso   1.000  O
  O13      1.0000 0.64520  0.42220  0.01700  Biso   1.000  O
  O14      1.0000 0.62800  0.53420  0.92682  Biso   1.000  O
  N2       1.0000 0.63190  0.43490  0.95430  Biso   1.000  N
  C7       1.0000 0.53930  0.02070  0.72400  Biso   1.000  C
  C8       1.0000 0.53930  0.90070  0.72400  Biso   1.000  C
  C9       1.0000 0.45390  0.47350  0.84840  Biso   1.000  C
  C10      1.0000 0.47840  0.48760  0.92700  Biso   1.000  C
  C11      1.0000 0.50030  0.59310  0.95850  Biso   1.000  C
  C12      1.0000 0.47830  0.39330  0.96950  Biso   1.000  C
  Eu3      1.0000 0.59759  0.53914  0.30323  Biso   1.000  Eu
  F9       1.0000 0.57670  0.92370  0.19460  Biso   1.000  F
  F10      1.0000 0.57790  0.15490  0.19660  Biso   1.000  F
  F11      1.0000 0.50090  0.31230  0.41977  Biso   1.000  F
  F12      1.0000 0.45751  0.71150  0.44168  Biso   1.000  F
  O15      1.0000 0.55455  0.73260  0.27287  Biso   1.000  O
  O16      1.0000 0.55456  0.34520  0.27670  Biso   1.000  O
  O17      1.0000 0.49565  0.53700  0.31988  Biso   1.000  O
  O18      1.0000 0.39526  0.52790  0.31507  Biso   1.000  O
  O19      1.0000 0.62160  0.65210  0.41390  Biso   1.000  O
  O20      1.0000 0.64520  0.57780  0.51700  Biso   1.000  O
  O21      1.0000 0.62800  0.46580  0.42682  Biso   1.000  O
  N3       1.0000 0.63190  0.56510  0.45430  Biso   1.000  N
  C13      1.0000 0.53930  0.97930  0.22400  Biso   1.000  C
  C14      1.0000 0.53930  0.09930  0.22400  Biso   1.000  C
  C15      1.0000 0.45390  0.52650  0.34840  Biso   1.000  C
  C16      1.0000 0.47840  0.51240  0.42700  Biso   1.000  C
  C17      1.0000 0.50030  0.40690  0.45850  Biso   1.000  C
  C18      1.0000 0.47830  0.60670  0.46950  Biso   1.000  C
  Eu4      1.0000 0.40241  0.53914  0.19677  Biso   1.000  Eu
  F13      1.0000 0.42330  0.92370  0.30540  Biso   1.000  F
  F14      1.0000 0.42210  0.15490  0.30340  Biso   1.000  F
  F15      1.0000 0.49910  0.31230  0.08023  Biso   1.000  F
  F16      1.0000 0.54249  0.71150  0.05832  Biso   1.000  F
  O22      1.0000 0.44545  0.73260  0.22713  Biso   1.000  O
  O23      1.0000 0.44544  0.34520  0.22330  Biso   1.000  O
  O24      1.0000 0.50435  0.53700  0.18012  Biso   1.000  O
  O25      1.0000 0.60474  0.52790  0.18493  Biso   1.000  O
  O26      1.0000 0.37840  0.65210  0.08610  Biso   1.000  O
  O27      1.0000 0.35480  0.57780  0.98300  Biso   1.000  O
  O28      1.0000 0.37200  0.46580  0.07318  Biso   1.000  O
  N4       1.0000 0.36810  0.56510  0.04570  Biso   1.000  N
  C19      1.0000 0.46070  0.97930  0.27600  Biso   1.000  C
  C20      1.0000 0.46070  0.09930  0.27600  Biso   1.000  C
  C21      1.0000 0.54610  0.52650  0.15160  Biso   1.000  C
  C22      1.0000 0.52160  0.51240  0.07300  Biso   1.000  C
  C23      1.0000 0.49970  0.40690  0.04150  Biso   1.000  C
  C24      1.0000 0.52170  0.60670  0.03050  Biso   1.000  C
  C25      1.0000 0.50000  0.21850  0.75000  Biso   1.000  C
  C26      1.0000 0.50000  0.08620  0.75000  Biso   1.000  C
  C27      1.0000 0.50000  0.83600  0.75000  Biso   1.000  C
  C28      1.0000 0.50000  0.70250  0.75000  Biso   1.000  C
  C29      1.0000 0.50000  0.78150  0.25000  Biso   1.000  C
  C30      1.0000 0.50000  0.91380  0.25000  Biso   1.000  C
  C31      1.0000 0.50000  0.16400  0.25000  Biso   1.000  C
  C32      1.0000 0.50000  0.29750  0.25000  Biso   1.000  C
  Eu5      1.0000 0.90241  0.96086  0.69677  Biso   1.000  Eu
  F17      1.0000 0.92330  0.57630  0.80540  Biso   1.000  F
  F18      1.0000 0.92210  0.34510  0.80340  Biso   1.000  F
  F19      1.0000 0.99910  0.18770  0.58023  Biso   1.000  F
  F20      1.0000 0.04249  0.78850  0.55832  Biso   1.000  F
  O29      1.0000 0.94545  0.76740  0.72713  Biso   1.000  O
  O30      1.0000 0.94544  0.15480  0.72330  Biso   1.000  O
  O31      1.0000 0.00435  0.96300  0.68012  Biso   1.000  O
  O32      1.0000 0.10474  0.97210  0.68493  Biso   1.000  O
  O33      1.0000 0.87840  0.84790  0.58610  Biso   1.000  O
  O34      1.0000 0.85480  0.92220  0.48300  Biso   1.000  O
  O35      1.0000 0.87200  0.03420  0.57318  Biso   1.000  O
  N5       1.0000 0.86810  0.93490  0.54570  Biso   1.000  N
  C33      1.0000 0.96070  0.52070  0.77600  Biso   1.000  C
  C34      1.0000 0.96070  0.40070  0.77600  Biso   1.000  C
  C35      1.0000 0.04610  0.97350  0.65160  Biso   1.000  C
  C36      1.0000 0.02160  0.98760  0.57300  Biso   1.000  C
  C37      1.0000 0.99970  0.09310  0.54150  Biso   1.000  C
  C38      1.0000 0.02170  0.89330  0.53050  Biso   1.000  C
  Eu6      1.0000 0.09759  0.96086  0.80323  Biso   1.000  Eu
  F21      1.0000 0.07670  0.57630  0.69460  Biso   1.000  F
  F22      1.0000 0.07790  0.34510  0.69660  Biso   1.000  F
  F23      1.0000 0.00090  0.18770  0.91977  Biso   1.000  F
  F24      1.0000 0.95751  0.78850  0.94168  Biso   1.000  F
  O36      1.0000 0.05455  0.76740  0.77287  Biso   1.000  O
  O37      1.0000 0.05456  0.15480  0.77670  Biso   1.000  O
  O38      1.0000 0.99565  0.96300  0.81988  Biso   1.000  O
  O39      1.0000 0.89526  0.97210  0.81507  Biso   1.000  O
  O40      1.0000 0.12160  0.84790  0.91390  Biso   1.000  O
  O41      1.0000 0.14520  0.92220  0.01700  Biso   1.000  O
  O42      1.0000 0.12800  0.03420  0.92682  Biso   1.000  O
  N6       1.0000 0.13190  0.93490  0.95430  Biso   1.000  N
  C39      1.0000 0.03930  0.52070  0.72400  Biso   1.000  C
  C40      1.0000 0.03930  0.40070  0.72400  Biso   1.000  C
  C41      1.0000 0.95390  0.97350  0.84840  Biso   1.000  C
  C42      1.0000 0.97840  0.98760  0.92700  Biso   1.000  C
  C43      1.0000 0.00030  0.09310  0.95850  Biso   1.000  C
  C44      1.0000 0.97830  0.89330  0.96950  Biso   1.000  C
  Eu7      1.0000 0.09759  0.03914  0.30323  Biso   1.000  Eu
  F25      1.0000 0.07670  0.42370  0.19460  Biso   1.000  F
  F26      1.0000 0.07790  0.65490  0.19660  Biso   1.000  F
  F27      1.0000 0.00090  0.81230  0.41977  Biso   1.000  F
  F28      1.0000 0.95751  0.21150  0.44168  Biso   1.000  F
  O43      1.0000 0.05455  0.23260  0.27287  Biso   1.000  O
  O44      1.0000 0.05456  0.84520  0.27670  Biso   1.000  O
  O45      1.0000 0.99565  0.03700  0.31988  Biso   1.000  O
  O46      1.0000 0.89526  0.02790  0.31507  Biso   1.000  O
  O47      1.0000 0.12160  0.15210  0.41390  Biso   1.000  O
  O48      1.0000 0.14520  0.07780  0.51700  Biso   1.000  O
  O49      1.0000 0.12800  0.96580  0.42682  Biso   1.000  O
  N7       1.0000 0.13190  0.06510  0.45430  Biso   1.000  N
  C45      1.0000 0.03930  0.47930  0.22400  Biso   1.000  C
  C46      1.0000 0.03930  0.59930  0.22400  Biso   1.000  C
  C47      1.0000 0.95390  0.02650  0.34840  Biso   1.000  C
  C48      1.0000 0.97840  0.01240  0.42700  Biso   1.000  C
  C49      1.0000 0.00030  0.90690  0.45850  Biso   1.000  C
  C50      1.0000 0.97830  0.10670  0.46950  Biso   1.000  C
  Eu8      1.0000 0.90241  0.03914  0.19677  Biso   1.000  Eu
  F29      1.0000 0.92330  0.42370  0.30540  Biso   1.000  F
  F30      1.0000 0.92210  0.65490  0.30340  Biso   1.000  F
  F31      1.0000 0.99910  0.81230  0.08023  Biso   1.000  F
  F32      1.0000 0.04249  0.21150  0.05832  Biso   1.000  F
  O50      1.0000 0.94545  0.23260  0.22713  Biso   1.000  O
  O51      1.0000 0.94544  0.84520  0.22330  Biso   1.000  O
  O52      1.0000 0.00435  0.03700  0.18012  Biso   1.000  O
  O53      1.0000 0.10474  0.02790  0.18493  Biso   1.000  O
  O54      1.0000 0.87840  0.15210  0.08610  Biso   1.000  O
  O55      1.0000 0.85480  0.07780  0.98300  Biso   1.000  O
  O56      1.0000 0.87200  0.96580  0.07318  Biso   1.000  O
  N8       1.0000 0.86810  0.06510  0.04570  Biso   1.000  N
  C51      1.0000 0.96070  0.47930  0.27600  Biso   1.000  C
  C52      1.0000 0.96070  0.59930  0.27600  Biso   1.000  C
  C53      1.0000 0.04610  0.02650  0.15160  Biso   1.000  C
  C54      1.0000 0.02160  0.01240  0.07300  Biso   1.000  C
  C55      1.0000 0.99970  0.90690  0.04150  Biso   1.000  C
  C56      1.0000 0.02170  0.10670  0.03050  Biso   1.000  C
  C57      1.0000 0.00000  0.71850  0.75000  Biso   1.000  C
  C58      1.0000 0.00000  0.58620  0.75000  Biso   1.000  C
  C59      1.0000 0.00000  0.33600  0.75000  Biso   1.000  C
  C60      1.0000 0.00000  0.20250  0.75000  Biso   1.000  C
  C61      1.0000 0.00000  0.28150  0.25000  Biso   1.000  C
  C62      1.0000 0.00000  0.41380  0.25000  Biso   1.000  C
  C63      1.0000 0.00000  0.66400  0.25000  Biso   1.000  C
  C64      1.0000 0.00000  0.79750  0.25000  Biso   1.000  C
