data_image0
_cell_length_a       28.1919
_cell_length_b       19.72
_cell_length_c       11.8904
_cell_angle_alpha    90
_cell_angle_beta     111.14
_cell_angle_gamma    90

_symmetry_space_group_name_H-M    "P 1"
_symmetry_int_tables_number       1

loop_
  _symmetry_equiv_pos_as_xyz
  'x, y, z'

loop_
  _atom_site_label
  _atom_site_occupancy
  _atom_site_fract_x
  _atom_site_fract_y
  _atom_site_fract_z
  _atom_site_thermal_displace_type
  _atom_site_B_iso_or_equiv
  _atom_site_type_symbol
  Pb1      1.0000 0.13608  0.23519  0.09129  Biso   1.000  Pb
  O1       1.0000 0.14500  0.35320  0.16740  Biso   1.000  O
  N1       1.0000 0.16570  0.24340  0.31020  Biso   1.000  N
  O2       1.0000 0.16600  0.42150  0.32440  Biso   1.000  O
  C1       1.0000 0.17150  0.30440  0.36220  Biso   1.000  C
  C2       1.0000 0.15990  0.36350  0.27910  Biso   1.000  C
  N2       1.0000 0.19730  0.25760  0.56220  Biso   1.000  N
  C3       1.0000 0.17650  0.18840  0.38130  Biso   1.000  C
  H1       1.0000 0.17340  0.14550  0.34700  Biso   1.000  H
  C4       1.0000 0.19200  0.19500  0.50200  Biso   1.000  C
  H2       1.0000 0.19970  0.15570  0.54850  Biso   1.000  H
  C5       1.0000 0.18820  0.31050  0.48870  Biso   1.000  C
  N3       1.0000 0.19510  0.36970  0.54680  Biso   1.000  N
  H3       1.0000 0.20450  0.37050  0.62410  Biso   1.000  H
  H4       1.0000 0.19020  0.40710  0.50700  Biso   1.000  H
  Pb2      1.0000 0.63608  0.73519  0.09129  Biso   1.000  Pb
  O3       1.0000 0.64500  0.85320  0.16740  Biso   1.000  O
  N4       1.0000 0.66570  0.74340  0.31020  Biso   1.000  N
  O4       1.0000 0.66600  0.92150  0.32440  Biso   1.000  O
  C6       1.0000 0.67150  0.80440  0.36220  Biso   1.000  C
  C7       1.0000 0.65990  0.86350  0.27910  Biso   1.000  C
  N5       1.0000 0.69730  0.75760  0.56220  Biso   1.000  N
  C8       1.0000 0.67650  0.68840  0.38130  Biso   1.000  C
  H5       1.0000 0.67340  0.64550  0.34700  Biso   1.000  H
  C9       1.0000 0.69200  0.69500  0.50200  Biso   1.000  C
  H6       1.0000 0.69970  0.65570  0.54850  Biso   1.000  H
  C10      1.0000 0.68820  0.81050  0.48870  Biso   1.000  C
  N6       1.0000 0.69510  0.86970  0.54680  Biso   1.000  N
  H7       1.0000 0.70450  0.87050  0.62410  Biso   1.000  H
  H8       1.0000 0.69020  0.90710  0.50700  Biso   1.000  H
  Pb3      1.0000 0.86392  0.23519  0.90871  Biso   1.000  Pb
  O5       1.0000 0.85500  0.35320  0.83260  Biso   1.000  O
  N7       1.0000 0.83430  0.24340  0.68980  Biso   1.000  N
  O6       1.0000 0.83400  0.42150  0.67560  Biso   1.000  O
  C11      1.0000 0.82850  0.30440  0.63780  Biso   1.000  C
  C12      1.0000 0.84010  0.36350  0.72090  Biso   1.000  C
  N8       1.0000 0.80270  0.25760  0.43780  Biso   1.000  N
  C13      1.0000 0.82350  0.18840  0.61870  Biso   1.000  C
  H9       1.0000 0.82660  0.14550  0.65300  Biso   1.000  H
  C14      1.0000 0.80800  0.19500  0.49800  Biso   1.000  C
  H10      1.0000 0.80030  0.15570  0.45150  Biso   1.000  H
  C15      1.0000 0.81180  0.31050  0.51130  Biso   1.000  C
  N9       1.0000 0.80490  0.36970  0.45320  Biso   1.000  N
  H11      1.0000 0.79550  0.37050  0.37590  Biso   1.000  H
  H12      1.0000 0.80980  0.40710  0.49300  Biso   1.000  H
  Pb4      1.0000 0.36392  0.73519  0.90871  Biso   1.000  Pb
  O7       1.0000 0.35500  0.85320  0.83260  Biso   1.000  O
  N10      1.0000 0.33430  0.74340  0.68980  Biso   1.000  N
  O8       1.0000 0.33400  0.92150  0.67560  Biso   1.000  O
  C16      1.0000 0.32850  0.80440  0.63780  Biso   1.000  C
  C17      1.0000 0.34010  0.86350  0.72090  Biso   1.000  C
  N11      1.0000 0.30270  0.75760  0.43780  Biso   1.000  N
  C18      1.0000 0.32350  0.68840  0.61870  Biso   1.000  C
  H13      1.0000 0.32660  0.64550  0.65300  Biso   1.000  H
  C19      1.0000 0.30800  0.69500  0.49800  Biso   1.000  C
  H14      1.0000 0.30030  0.65570  0.45150  Biso   1.000  H
  C20      1.0000 0.31180  0.81050  0.51130  Biso   1.000  C
  N12      1.0000 0.30490  0.86970  0.45320  Biso   1.000  N
  H15      1.0000 0.29550  0.87050  0.37590  Biso   1.000  H
  H16      1.0000 0.30980  0.90710  0.49300  Biso   1.000  H
  Pb5      1.0000 0.86392  0.76481  0.90871  Biso   1.000  Pb
  O9       1.0000 0.85500  0.64680  0.83260  Biso   1.000  O
  N13      1.0000 0.83430  0.75660  0.68980  Biso   1.000  N
  O10      1.0000 0.83400  0.57850  0.67560  Biso   1.000  O
  C21      1.0000 0.82850  0.69560  0.63780  Biso   1.000  C
  C22      1.0000 0.84010  0.63650  0.72090  Biso   1.000  C
  N14      1.0000 0.80270  0.74240  0.43780  Biso   1.000  N
  C23      1.0000 0.82350  0.81160  0.61870  Biso   1.000  C
  H17      1.0000 0.82660  0.85450  0.65300  Biso   1.000  H
  C24      1.0000 0.80800  0.80500  0.49800  Biso   1.000  C
  H18      1.0000 0.80030  0.84430  0.45150  Biso   1.000  H
  C25      1.0000 0.81180  0.68950  0.51130  Biso   1.000  C
  N15      1.0000 0.80490  0.63030  0.45320  Biso   1.000  N
  H19      1.0000 0.79550  0.62950  0.37590  Biso   1.000  H
  H20      1.0000 0.80980  0.59290  0.49300  Biso   1.000  H
  Pb6      1.0000 0.36392  0.26481  0.90871  Biso   1.000  Pb
  O11      1.0000 0.35500  0.14680  0.83260  Biso   1.000  O
  N16      1.0000 0.33430  0.25660  0.68980  Biso   1.000  N
  O12      1.0000 0.33400  0.07850  0.67560  Biso   1.000  O
  C26      1.0000 0.32850  0.19560  0.63780  Biso   1.000  C
  C27      1.0000 0.34010  0.13650  0.72090  Biso   1.000  C
  N17      1.0000 0.30270  0.24240  0.43780  Biso   1.000  N
  C28      1.0000 0.32350  0.31160  0.61870  Biso   1.000  C
  H21      1.0000 0.32660  0.35450  0.65300  Biso   1.000  H
  C29      1.0000 0.30800  0.30500  0.49800  Biso   1.000  C
  H22      1.0000 0.30030  0.34430  0.45150  Biso   1.000  H
  C30      1.0000 0.31180  0.18950  0.51130  Biso   1.000  C
  N18      1.0000 0.30490  0.13030  0.45320  Biso   1.000  N
  H23      1.0000 0.29550  0.12950  0.37590  Biso   1.000  H
  H24      1.0000 0.30980  0.09290  0.49300  Biso   1.000  H
  Pb7      1.0000 0.13608  0.76481  0.09129  Biso   1.000  Pb
  O13      1.0000 0.14500  0.64680  0.16740  Biso   1.000  O
  N19      1.0000 0.16570  0.75660  0.31020  Biso   1.000  N
  O14      1.0000 0.16600  0.57850  0.32440  Biso   1.000  O
  C31      1.0000 0.17150  0.69560  0.36220  Biso   1.000  C
  C32      1.0000 0.15990  0.63650  0.27910  Biso   1.000  C
  N20      1.0000 0.19730  0.74240  0.56220  Biso   1.000  N
  C33      1.0000 0.17650  0.81160  0.38130  Biso   1.000  C
  H25      1.0000 0.17340  0.85450  0.34700  Biso   1.000  H
  C34      1.0000 0.19200  0.80500  0.50200  Biso   1.000  C
  H26      1.0000 0.19970  0.84430  0.54850  Biso   1.000  H
  C35      1.0000 0.18820  0.68950  0.48870  Biso   1.000  C
  N21      1.0000 0.19510  0.63030  0.54680  Biso   1.000  N
  H27      1.0000 0.20450  0.62950  0.62410  Biso   1.000  H
  H28      1.0000 0.19020  0.59290  0.50700  Biso   1.000  H
  Pb8      1.0000 0.63608  0.26481  0.09129  Biso   1.000  Pb
  O15      1.0000 0.64500  0.14680  0.16740  Biso   1.000  O
  N22      1.0000 0.66570  0.25660  0.31020  Biso   1.000  N
  O16      1.0000 0.66600  0.07850  0.32440  Biso   1.000  O
  C36      1.0000 0.67150  0.19560  0.36220  Biso   1.000  C
  C37      1.0000 0.65990  0.13650  0.27910  Biso   1.000  C
  N23      1.0000 0.69730  0.24240  0.56220  Biso   1.000  N
  C38      1.0000 0.67650  0.31160  0.38130  Biso   1.000  C
  H29      1.0000 0.67340  0.35450  0.34700  Biso   1.000  H
  C39      1.0000 0.69200  0.30500  0.50200  Biso   1.000  C
  H30      1.0000 0.69970  0.34430  0.54850  Biso   1.000  H
  C40      1.0000 0.68820  0.18950  0.48870  Biso   1.000  C
  N24      1.0000 0.69510  0.13030  0.54680  Biso   1.000  N
  H31      1.0000 0.70450  0.12950  0.62410  Biso   1.000  H
  H32      1.0000 0.69020  0.09290  0.50700  Biso   1.000  H
  N25      1.0000 0.04920  0.26290  0.14390  Biso   1.000  N
  O17      1.0000 0.08610  0.13740  0.14200  Biso   1.000  O
  O18      1.0000 0.01690  0.09070  0.15190  Biso   1.000  O
  C41      1.0000 0.02220  0.21190  0.15840  Biso   1.000  C
  C42      1.0000 0.04400  0.14230  0.15070  Biso   1.000  C
  N26      1.0000 0.94580  0.16920  0.18350  Biso   1.000  N
  H33      1.0000 0.91780  0.17750  0.19440  Biso   1.000  H
  H34      1.0000 0.95540  0.12810  0.18120  Biso   1.000  H
  C43      1.0000 0.97450  0.22080  0.17010  Biso   1.000  C
  N27      1.0000 0.95750  0.28410  0.17460  Biso   1.000  N
  C44      1.0000 0.03220  0.32420  0.14800  Biso   1.000  C
  H35      1.0000 0.05120  0.36130  0.14040  Biso   1.000  H
  C45      1.0000 0.98570  0.33480  0.16370  Biso   1.000  C
  H36      1.0000 0.97460  0.37900  0.16650  Biso   1.000  H
  O19      1.0000 0.19820  0.14070  0.13640  Biso   1.000  O
  N28      1.0000 0.23520  0.26720  0.14210  Biso   1.000  N
  N29      1.0000 0.33660  0.29030  0.17650  Biso   1.000  N
  N30      1.0000 0.35090  0.17710  0.16860  Biso   1.000  N
  H37      1.0000 0.38160  0.18700  0.17640  Biso   1.000  H
  H38      1.0000 0.34130  0.13540  0.16240  Biso   1.000  H
  O20      1.0000 0.27340  0.09680  0.16070  Biso   1.000  O
  C46      1.0000 0.25350  0.32990  0.15180  Biso   1.000  C
  H39      1.0000 0.23250  0.36670  0.14890  Biso   1.000  H
  C47      1.0000 0.30390  0.34020  0.16620  Biso   1.000  C
  H40      1.0000 0.31540  0.38460  0.16890  Biso   1.000  H
  C48      1.0000 0.26660  0.21520  0.15010  Biso   1.000  C
  C49      1.0000 0.24510  0.14580  0.14960  Biso   1.000  C
  C50      1.0000 0.31850  0.22580  0.16610  Biso   1.000  C
  N31      1.0000 0.54920  0.76290  0.14390  Biso   1.000  N
  O21      1.0000 0.58610  0.63740  0.14200  Biso   1.000  O
  O22      1.0000 0.51690  0.59070  0.15190  Biso   1.000  O
  C51      1.0000 0.52220  0.71190  0.15840  Biso   1.000  C
  C52      1.0000 0.54400  0.64230  0.15070  Biso   1.000  C
  N32      1.0000 0.44580  0.66920  0.18350  Biso   1.000  N
  H41      1.0000 0.41780  0.67750  0.19440  Biso   1.000  H
  H42      1.0000 0.45540  0.62810  0.18120  Biso   1.000  H
  C53      1.0000 0.47450  0.72080  0.17010  Biso   1.000  C
  N33      1.0000 0.45750  0.78410  0.17460  Biso   1.000  N
  C54      1.0000 0.53220  0.82420  0.14800  Biso   1.000  C
  H43      1.0000 0.55120  0.86130  0.14040  Biso   1.000  H
  C55      1.0000 0.48570  0.83480  0.16370  Biso   1.000  C
  H44      1.0000 0.47460  0.87900  0.16650  Biso   1.000  H
  O23      1.0000 0.69820  0.64070  0.13640  Biso   1.000  O
  N34      1.0000 0.73520  0.76720  0.14210  Biso   1.000  N
  N35      1.0000 0.83660  0.79030  0.17650  Biso   1.000  N
  N36      1.0000 0.85090  0.67710  0.16860  Biso   1.000  N
  H45      1.0000 0.88160  0.68700  0.17640  Biso   1.000  H
  H46      1.0000 0.84130  0.63540  0.16240  Biso   1.000  H
  O24      1.0000 0.77340  0.59680  0.16070  Biso   1.000  O
  C56      1.0000 0.75350  0.82990  0.15180  Biso   1.000  C
  H47      1.0000 0.73250  0.86670  0.14890  Biso   1.000  H
  C57      1.0000 0.80390  0.84020  0.16620  Biso   1.000  C
  H48      1.0000 0.81540  0.88460  0.16890  Biso   1.000  H
  C58      1.0000 0.76660  0.71520  0.15010  Biso   1.000  C
  C59      1.0000 0.74510  0.64580  0.14960  Biso   1.000  C
  C60      1.0000 0.81850  0.72580  0.16610  Biso   1.000  C
  N37      1.0000 0.95080  0.26290  0.85610  Biso   1.000  N
  O25      1.0000 0.91390  0.13740  0.85800  Biso   1.000  O
  O26      1.0000 0.98310  0.09070  0.84810  Biso   1.000  O
  C61      1.0000 0.97780  0.21190  0.84160  Biso   1.000  C
  C62      1.0000 0.95600  0.14230  0.84930  Biso   1.000  C
  N38      1.0000 0.05420  0.16920  0.81650  Biso   1.000  N
  H49      1.0000 0.08220  0.17750  0.80560  Biso   1.000  H
  H50      1.0000 0.04460  0.12810  0.81880  Biso   1.000  H
  C63      1.0000 0.02550  0.22080  0.82990  Biso   1.000  C
  N39      1.0000 0.04250  0.28410  0.82540  Biso   1.000  N
  C64      1.0000 0.96780  0.32420  0.85200  Biso   1.000  C
  H51      1.0000 0.94880  0.36130  0.85960  Biso   1.000  H
  C65      1.0000 0.01430  0.33480  0.83630  Biso   1.000  C
  H52      1.0000 0.02540  0.37900  0.83350  Biso   1.000  H
  O27      1.0000 0.80180  0.14070  0.86360  Biso   1.000  O
  N40      1.0000 0.76480  0.26720  0.85790  Biso   1.000  N
  N41      1.0000 0.66340  0.29030  0.82350  Biso   1.000  N
  N42      1.0000 0.64910  0.17710  0.83140  Biso   1.000  N
  H53      1.0000 0.61840  0.18700  0.82360  Biso   1.000  H
  H54      1.0000 0.65870  0.13540  0.83760  Biso   1.000  H
  O28      1.0000 0.72660  0.09680  0.83930  Biso   1.000  O
  C66      1.0000 0.74650  0.32990  0.84820  Biso   1.000  C
  H55      1.0000 0.76750  0.36670  0.85110  Biso   1.000  H
  C67      1.0000 0.69610  0.34020  0.83380  Biso   1.000  C
  H56      1.0000 0.68460  0.38460  0.83110  Biso   1.000  H
  C68      1.0000 0.73340  0.21520  0.84990  Biso   1.000  C
  C69      1.0000 0.75490  0.14580  0.85040  Biso   1.000  C
  C70      1.0000 0.68150  0.22580  0.83390  Biso   1.000  C
  N43      1.0000 0.45080  0.76290  0.85610  Biso   1.000  N
  O29      1.0000 0.41390  0.63740  0.85800  Biso   1.000  O
  O30      1.0000 0.48310  0.59070  0.84810  Biso   1.000  O
  C71      1.0000 0.47780  0.71190  0.84160  Biso   1.000  C
  C72      1.0000 0.45600  0.64230  0.84930  Biso   1.000  C
  N44      1.0000 0.55420  0.66920  0.81650  Biso   1.000  N
  H57      1.0000 0.58220  0.67750  0.80560  Biso   1.000  H
  H58      1.0000 0.54460  0.62810  0.81880  Biso   1.000  H
  C73      1.0000 0.52550  0.72080  0.82990  Biso   1.000  C
  N45      1.0000 0.54250  0.78410  0.82540  Biso   1.000  N
  C74      1.0000 0.46780  0.82420  0.85200  Biso   1.000  C
  H59      1.0000 0.44880  0.86130  0.85960  Biso   1.000  H
  C75      1.0000 0.51430  0.83480  0.83630  Biso   1.000  C
  H60      1.0000 0.52540  0.87900  0.83350  Biso   1.000  H
  O31      1.0000 0.30180  0.64070  0.86360  Biso   1.000  O
  N46      1.0000 0.26480  0.76720  0.85790  Biso   1.000  N
  N47      1.0000 0.16340  0.79030  0.82350  Biso   1.000  N
  N48      1.0000 0.14910  0.67710  0.83140  Biso   1.000  N
  H61      1.0000 0.11840  0.68700  0.82360  Biso   1.000  H
  H62      1.0000 0.15870  0.63540  0.83760  Biso   1.000  H
  O32      1.0000 0.22660  0.59680  0.83930  Biso   1.000  O
  C76      1.0000 0.24650  0.82990  0.84820  Biso   1.000  C
  H63      1.0000 0.26750  0.86670  0.85110  Biso   1.000  H
  C77      1.0000 0.19610  0.84020  0.83380  Biso   1.000  C
  H64      1.0000 0.18460  0.88460  0.83110  Biso   1.000  H
  C78      1.0000 0.23340  0.71520  0.84990  Biso   1.000  C
  C79      1.0000 0.25490  0.64580  0.85040  Biso   1.000  C
  C80      1.0000 0.18150  0.72580  0.83390  Biso   1.000  C
  N49      1.0000 0.95080  0.73710  0.85610  Biso   1.000  N
  O33      1.0000 0.91390  0.86260  0.85800  Biso   1.000  O
  O34      1.0000 0.98310  0.90930  0.84810  Biso   1.000  O
  C81      1.0000 0.97780  0.78810  0.84160  Biso   1.000  C
  C82      1.0000 0.95600  0.85770  0.84930  Biso   1.000  C
  N50      1.0000 0.05420  0.83080  0.81650  Biso   1.000  N
  H65      1.0000 0.08220  0.82250  0.80560  Biso   1.000  H
  H66      1.0000 0.04460  0.87190  0.81880  Biso   1.000  H
  C83      1.0000 0.02550  0.77920  0.82990  Biso   1.000  C
  N51      1.0000 0.04250  0.71590  0.82540  Biso   1.000  N
  C84      1.0000 0.96780  0.67580  0.85200  Biso   1.000  C
  H67      1.0000 0.94880  0.63870  0.85960  Biso   1.000  H
  C85      1.0000 0.01430  0.66520  0.83630  Biso   1.000  C
  H68      1.0000 0.02540  0.62100  0.83350  Biso   1.000  H
  O35      1.0000 0.80180  0.85930  0.86360  Biso   1.000  O
  N52      1.0000 0.76480  0.73280  0.85790  Biso   1.000  N
  N53      1.0000 0.66340  0.70970  0.82350  Biso   1.000  N
  N54      1.0000 0.64910  0.82290  0.83140  Biso   1.000  N
  H69      1.0000 0.61840  0.81300  0.82360  Biso   1.000  H
  H70      1.0000 0.65870  0.86460  0.83760  Biso   1.000  H
  O36      1.0000 0.72660  0.90320  0.83930  Biso   1.000  O
  C86      1.0000 0.74650  0.67010  0.84820  Biso   1.000  C
  H71      1.0000 0.76750  0.63330  0.85110  Biso   1.000  H
  C87      1.0000 0.69610  0.65980  0.83380  Biso   1.000  C
  H72      1.0000 0.68460  0.61540  0.83110  Biso   1.000  H
  C88      1.0000 0.73340  0.78480  0.84990  Biso   1.000  C
  C89      1.0000 0.75490  0.85420  0.85040  Biso   1.000  C
  C90      1.0000 0.68150  0.77420  0.83390  Biso   1.000  C
  N55      1.0000 0.45080  0.23710  0.85610  Biso   1.000  N
  O37      1.0000 0.41390  0.36260  0.85800  Biso   1.000  O
  O38      1.0000 0.48310  0.40930  0.84810  Biso   1.000  O
  C91      1.0000 0.47780  0.28810  0.84160  Biso   1.000  C
  C92      1.0000 0.45600  0.35770  0.84930  Biso   1.000  C
  N56      1.0000 0.55420  0.33080  0.81650  Biso   1.000  N
  H73      1.0000 0.58220  0.32250  0.80560  Biso   1.000  H
  H74      1.0000 0.54460  0.37190  0.81880  Biso   1.000  H
  C93      1.0000 0.52550  0.27920  0.82990  Biso   1.000  C
  N57      1.0000 0.54250  0.21590  0.82540  Biso   1.000  N
  C94      1.0000 0.46780  0.17580  0.85200  Biso   1.000  C
  H75      1.0000 0.44880  0.13870  0.85960  Biso   1.000  H
  C95      1.0000 0.51430  0.16520  0.83630  Biso   1.000  C
  H76      1.0000 0.52540  0.12100  0.83350  Biso   1.000  H
  O39      1.0000 0.30180  0.35930  0.86360  Biso   1.000  O
  N58      1.0000 0.26480  0.23280  0.85790  Biso   1.000  N
  N59      1.0000 0.16340  0.20970  0.82350  Biso   1.000  N
  N60      1.0000 0.14910  0.32290  0.83140  Biso   1.000  N
  H77      1.0000 0.11840  0.31300  0.82360  Biso   1.000  H
  H78      1.0000 0.15870  0.36460  0.83760  Biso   1.000  H
  O40      1.0000 0.22660  0.40320  0.83930  Biso   1.000  O
  C96      1.0000 0.24650  0.17010  0.84820  Biso   1.000  C
  H79      1.0000 0.26750  0.13330  0.85110  Biso   1.000  H
  C97      1.0000 0.19610  0.15980  0.83380  Biso   1.000  C
  H80      1.0000 0.18460  0.11540  0.83110  Biso   1.000  H
  C98      1.0000 0.23340  0.28480  0.84990  Biso   1.000  C
  C99      1.0000 0.25490  0.35420  0.85040  Biso   1.000  C
  C100     1.0000 0.18150  0.27420  0.83390  Biso   1.000  C
  N61      1.0000 0.04920  0.73710  0.14390  Biso   1.000  N
  O41      1.0000 0.08610  0.86260  0.14200  Biso   1.000  O
  O42      1.0000 0.01690  0.90930  0.15190  Biso   1.000  O
  C101     1.0000 0.02220  0.78810  0.15840  Biso   1.000  C
  C102     1.0000 0.04400  0.85770  0.15070  Biso   1.000  C
  N62      1.0000 0.94580  0.83080  0.18350  Biso   1.000  N
  H81      1.0000 0.91780  0.82250  0.19440  Biso   1.000  H
  H82      1.0000 0.95540  0.87190  0.18120  Biso   1.000  H
  C103     1.0000 0.97450  0.77920  0.17010  Biso   1.000  C
  N63      1.0000 0.95750  0.71590  0.17460  Biso   1.000  N
  C104     1.0000 0.03220  0.67580  0.14800  Biso   1.000  C
  H83      1.0000 0.05120  0.63870  0.14040  Biso   1.000  H
  C105     1.0000 0.98570  0.66520  0.16370  Biso   1.000  C
  H84      1.0000 0.97460  0.62100  0.16650  Biso   1.000  H
  O43      1.0000 0.19820  0.85930  0.13640  Biso   1.000  O
  N64      1.0000 0.23520  0.73280  0.14210  Biso   1.000  N
  N65      1.0000 0.33660  0.70970  0.17650  Biso   1.000  N
  N66      1.0000 0.35090  0.82290  0.16860  Biso   1.000  N
  H85      1.0000 0.38160  0.81300  0.17640  Biso   1.000  H
  H86      1.0000 0.34130  0.86460  0.16240  Biso   1.000  H
  O44      1.0000 0.27340  0.90320  0.16070  Biso   1.000  O
  C106     1.0000 0.25350  0.67010  0.15180  Biso   1.000  C
  H87      1.0000 0.23250  0.63330  0.14890  Biso   1.000  H
  C107     1.0000 0.30390  0.65980  0.16620  Biso   1.000  C
  H88      1.0000 0.31540  0.61540  0.16890  Biso   1.000  H
  C108     1.0000 0.26660  0.78480  0.15010  Biso   1.000  C
  C109     1.0000 0.24510  0.85420  0.14960  Biso   1.000  C
  C110     1.0000 0.31850  0.77420  0.16610  Biso   1.000  C
  N67      1.0000 0.54920  0.23710  0.14390  Biso   1.000  N
  O45      1.0000 0.58610  0.36260  0.14200  Biso   1.000  O
  O46      1.0000 0.51690  0.40930  0.15190  Biso   1.000  O
  C111     1.0000 0.52220  0.28810  0.15840  Biso   1.000  C
  C112     1.0000 0.54400  0.35770  0.15070  Biso   1.000  C
  N68      1.0000 0.44580  0.33080  0.18350  Biso   1.000  N
  H89      1.0000 0.41780  0.32250  0.19440  Biso   1.000  H
  H90      1.0000 0.45540  0.37190  0.18120  Biso   1.000  H
  C113     1.0000 0.47450  0.27920  0.17010  Biso   1.000  C
  N69      1.0000 0.45750  0.21590  0.17460  Biso   1.000  N
  C114     1.0000 0.53220  0.17580  0.14800  Biso   1.000  C
  H91      1.0000 0.55120  0.13870  0.14040  Biso   1.000  H
  C115     1.0000 0.48570  0.16520  0.16370  Biso   1.000  C
  H92      1.0000 0.47460  0.12100  0.16650  Biso   1.000  H
  O47      1.0000 0.69820  0.35930  0.13640  Biso   1.000  O
  N70      1.0000 0.73520  0.23280  0.14210  Biso   1.000  N
  N71      1.0000 0.83660  0.20970  0.17650  Biso   1.000  N
  N72      1.0000 0.85090  0.32290  0.16860  Biso   1.000  N
  H93      1.0000 0.88160  0.31300  0.17640  Biso   1.000  H
  H94      1.0000 0.84130  0.36460  0.16240  Biso   1.000  H
  O48      1.0000 0.77340  0.40320  0.16070  Biso   1.000  O
  C116     1.0000 0.75350  0.17010  0.15180  Biso   1.000  C
  H95      1.0000 0.73250  0.13330  0.14890  Biso   1.000  H
  C117     1.0000 0.80390  0.15980  0.16620  Biso   1.000  C
  H96      1.0000 0.81540  0.11540  0.16890  Biso   1.000  H
  C118     1.0000 0.76660  0.28480  0.15010  Biso   1.000  C
  C119     1.0000 0.74510  0.35420  0.14960  Biso   1.000  C
  C120     1.0000 0.81850  0.27420  0.16610  Biso   1.000  C
  O49      1.0000 0.22600  0.00000  0.39700  Biso   1.000  O
  N73      1.0000 0.09060  0.00000  0.34090  Biso   1.000  N
  O50      1.0000 0.15820  0.00000  0.22400  Biso   1.000  O
  C121     1.0000 0.15960  0.00000  0.52700  Biso   1.000  C
  C122     1.0000 0.14400  0.00000  0.40000  Biso   1.000  C
  C123     1.0000 0.06190  0.00000  0.39100  Biso   1.000  C
  H97      1.0000 0.02730  0.00000  0.34600  Biso   1.000  H
  C124     1.0000 0.07790  0.00000  0.52200  Biso   1.000  C
  H98      1.0000 0.05320  0.00000  0.55710  Biso   1.000  H
  C125     1.0000 0.17570  0.00000  0.34300  Biso   1.000  C
  N74      1.0000 0.12960  0.00000  0.59800  Biso   1.000  N
  N75      1.0000 0.21420  0.00000  0.60600  Biso   1.000  N
  H99      1.0000 0.22270  0.00000  0.68350  Biso   1.000  H
  H100     1.0000 0.23730  0.00000  0.57500  Biso   1.000  H
  O51      1.0000 0.72600  0.50000  0.39700  Biso   1.000  O
  N76      1.0000 0.59060  0.50000  0.34090  Biso   1.000  N
  O52      1.0000 0.65820  0.50000  0.22400  Biso   1.000  O
  C126     1.0000 0.65960  0.50000  0.52700  Biso   1.000  C
  C127     1.0000 0.64400  0.50000  0.40000  Biso   1.000  C
  C128     1.0000 0.56190  0.50000  0.39100  Biso   1.000  C
  H101     1.0000 0.52730  0.50000  0.34600  Biso   1.000  H
  C129     1.0000 0.57790  0.50000  0.52200  Biso   1.000  C
  H102     1.0000 0.55320  0.50000  0.55710  Biso   1.000  H
  C130     1.0000 0.67570  0.50000  0.34300  Biso   1.000  C
  N77      1.0000 0.62960  0.50000  0.59800  Biso   1.000  N
  N78      1.0000 0.71420  0.50000  0.60600  Biso   1.000  N
  H103     1.0000 0.72270  0.50000  0.68350  Biso   1.000  H
  H104     1.0000 0.73730  0.50000  0.57500  Biso   1.000  H
  O53      1.0000 0.77400  0.00000  0.60300  Biso   1.000  O
  N79      1.0000 0.90940  0.00000  0.65910  Biso   1.000  N
  O54      1.0000 0.84180  0.00000  0.77600  Biso   1.000  O
  C131     1.0000 0.84040  0.00000  0.47300  Biso   1.000  C
  C132     1.0000 0.85600  0.00000  0.60000  Biso   1.000  C
  C133     1.0000 0.93810  0.00000  0.60900  Biso   1.000  C
  H105     1.0000 0.97270  0.00000  0.65400  Biso   1.000  H
  C134     1.0000 0.92210  0.00000  0.47800  Biso   1.000  C
  H106     1.0000 0.94680  0.00000  0.44290  Biso   1.000  H
  C135     1.0000 0.82430  0.00000  0.65700  Biso   1.000  C
  N80      1.0000 0.87040  0.00000  0.40200  Biso   1.000  N
  N81      1.0000 0.78580  0.00000  0.39400  Biso   1.000  N
  H107     1.0000 0.77730  0.00000  0.31650  Biso   1.000  H
  H108     1.0000 0.76270  0.00000  0.42500  Biso   1.000  H
  O55      1.0000 0.27400  0.50000  0.60300  Biso   1.000  O
  N82      1.0000 0.40940  0.50000  0.65910  Biso   1.000  N
  O56      1.0000 0.34180  0.50000  0.77600  Biso   1.000  O
  C136     1.0000 0.34040  0.50000  0.47300  Biso   1.000  C
  C137     1.0000 0.35600  0.50000  0.60000  Biso   1.000  C
  C138     1.0000 0.43810  0.50000  0.60900  Biso   1.000  C
  H109     1.0000 0.47270  0.50000  0.65400  Biso   1.000  H
  C139     1.0000 0.42210  0.50000  0.47800  Biso   1.000  C
  H110     1.0000 0.44680  0.50000  0.44290  Biso   1.000  H
  C140     1.0000 0.32430  0.50000  0.65700  Biso   1.000  C
  N83      1.0000 0.37040  0.50000  0.40200  Biso   1.000  N
  N84      1.0000 0.28580  0.50000  0.39400  Biso   1.000  N
  H111     1.0000 0.27730  0.50000  0.31650  Biso   1.000  H
  H112     1.0000 0.26270  0.50000  0.42500  Biso   1.000  H
