data_image0
_cell_length_a       11.614
_cell_length_b       12.122
_cell_length_c       23.23
_cell_angle_alpha    83.501
_cell_angle_beta     86.396
_cell_angle_gamma    84.963

_symmetry_space_group_name_H-M    "P 1"
_symmetry_int_tables_number       1

loop_
  _symmetry_equiv_pos_as_xyz
  'x, y, z'

loop_
  _atom_site_label
  _atom_site_occupancy
  _atom_site_fract_x
  _atom_site_fract_y
  _atom_site_fract_z
  _atom_site_thermal_displace_type
  _atom_site_B_iso_or_equiv
  _atom_site_type_symbol
  C1       1.0000 0.03880  0.28130  0.51890  Biso   1.000  C
  C2       1.0000 0.96400  0.37680  0.53830  Biso   1.000  C
  C3       1.0000 0.82230  0.48630  0.55300  Biso   1.000  C
  C4       1.0000 0.70190  0.54540  0.55260  Biso   1.000  C
  C5       1.0000 0.63560  0.55780  0.60190  Biso   1.000  C
  H1       1.0000 0.66310  0.53480  0.63840  Biso   1.000  H
  C6       1.0000 0.52400  0.60700  0.59460  Biso   1.000  C
  H2       1.0000 0.47450  0.61960  0.62660  Biso   1.000  H
  C7       1.0000 0.48960  0.63600  0.54030  Biso   1.000  C
  H3       1.0000 0.41500  0.66840  0.53470  Biso   1.000  H
  C8       1.0000 0.56300  0.61800  0.49300  Biso   1.000  C
  H4       1.0000 0.53840  0.63970  0.45580  Biso   1.000  H
  C9       1.0000 0.70270  0.14810  0.34970  Biso   1.000  C
  H5       1.0000 0.69270  0.08760  0.37740  Biso   1.000  H
  C10      1.0000 0.74120  0.30320  0.30840  Biso   1.000  C
  C11      1.0000 0.76750  0.41680  0.29760  Biso   1.000  C
  C12      1.0000 0.79280  0.57660  0.25050  Biso   1.000  C
  C13      1.0000 0.80480  0.66640  0.20410  Biso   1.000  C
  C14      1.0000 0.81010  0.77700  0.21750  Biso   1.000  C
  H6       1.0000 0.80720  0.79350  0.25580  Biso   1.000  H
  C15      1.0000 0.81950  0.85830  0.17240  Biso   1.000  C
  H7       1.0000 0.82480  0.93110  0.18040  Biso   1.000  H
  C16      1.0000 0.81960  0.73620  0.10440  Biso   1.000  C
  H8       1.0000 0.82550  0.72250  0.06570  Biso   1.000  H
  C17      1.0000 0.80920  0.64970  0.14650  Biso   1.000  C
  H9       1.0000 0.80510  0.57820  0.13620  Biso   1.000  H
  C18      1.0000 0.73600  0.30150  0.05120  Biso   1.000  C
  C19      1.0000 0.85760  0.33010  0.04760  Biso   1.000  C
  C20      1.0000 0.01410  0.39260  0.05850  Biso   1.000  C
  C21      1.0000 0.10510  0.44190  0.08540  Biso   1.000  C
  C22      1.0000 0.09430  0.46850  0.14190  Biso   1.000  C
  H10      1.0000 0.02700  0.45580  0.16470  Biso   1.000  H
  C23      1.0000 0.18620  0.51500  0.16470  Biso   1.000  C
  H11      1.0000 0.17830  0.53500  0.20240  Biso   1.000  H
  C24      1.0000 0.29730  0.50410  0.08150  Biso   1.000  C
  H12      1.0000 0.36790  0.51600  0.06160  Biso   1.000  H
  C25      1.0000 0.20980  0.45830  0.05410  Biso   1.000  C
  H13      1.0000 0.22180  0.43970  0.01630  Biso   1.000  H
  N1       1.0000 0.66710  0.57160  0.49940  Biso   1.000  N
  N2       1.0000 0.86220  0.41460  0.51810  Biso   1.000  N
  N3       1.0000 0.99130  0.42470  0.58280  Biso   1.000  N
  N4       1.0000 0.90020  0.49520  0.59250  Biso   1.000  N
  N5       1.0000 0.01220  0.22200  0.47700  Biso   1.000  N
  N6       1.0000 0.13500  0.24230  0.54480  Biso   1.000  N
  N7       1.0000 0.82130  0.83780  0.11720  Biso   1.000  N
  N8       1.0000 0.77210  0.46940  0.24340  Biso   1.000  N
  N9       1.0000 0.78360  0.48370  0.33730  Biso   1.000  N
  N10      1.0000 0.80210  0.58780  0.30620  Biso   1.000  N
  N11      1.0000 0.70090  0.25410  0.26770  Biso   1.000  N
  N12      1.0000 0.67790  0.15100  0.29480  Biso   1.000  N
  N13      1.0000 0.74400  0.24250  0.36050  Biso   1.000  N
  N14      1.0000 0.27940  0.52990  0.13480  Biso   1.000  N
  N15      1.0000 0.90650  0.38630  0.08420  Biso   1.000  N
  N16      1.0000 0.93280  0.30280  0.00480  Biso   1.000  N
  N17      1.0000 0.03690  0.34330  0.01010  Biso   1.000  N
  N18      1.0000 0.66020  0.33010  0.09410  Biso   1.000  N
  N19      1.0000 0.69570  0.24810  0.01250  Biso   1.000  N
  Ag1      1.0000 0.83177  0.71431  0.36567  Biso   1.000  Ag
  Ag2      1.0000 0.86427  0.23826  0.42614  Biso   1.000  Ag
  Ag3      1.0000 0.78366  0.47600  0.42879  Biso   1.000  Ag
  Ag4      1.0000 0.71088  0.37339  0.17570  Biso   1.000  Ag
  N20      1.0000 0.17310  0.15270  0.51720  Biso   1.000  N
  N21      1.0000 0.58220  0.24100  0.03190  Biso   1.000  N
  C26      1.0000 0.10060  0.14060  0.47570  Biso   1.000  C
  H14      1.0000 0.10950  0.08590  0.45030  Biso   1.000  H
  C27      1.0000 0.56120  0.28880  0.08080  Biso   1.000  C
  H15      1.0000 0.49090  0.29310  0.10230  Biso   1.000  H
  C28      1.0000 0.96120  0.71870  0.48110  Biso   1.000  C
  C29      1.0000 0.03600  0.62320  0.46170  Biso   1.000  C
  C30      1.0000 0.17770  0.51370  0.44700  Biso   1.000  C
  C31      1.0000 0.29810  0.45460  0.44740  Biso   1.000  C
  C32      1.0000 0.36440  0.44220  0.39810  Biso   1.000  C
  H16      1.0000 0.33690  0.46520  0.36160  Biso   1.000  H
  C33      1.0000 0.47600  0.39300  0.40540  Biso   1.000  C
  H17      1.0000 0.52550  0.38040  0.37340  Biso   1.000  H
  C34      1.0000 0.51040  0.36400  0.45970  Biso   1.000  C
  H18      1.0000 0.58500  0.33160  0.46530  Biso   1.000  H
  C35      1.0000 0.43700  0.38200  0.50700  Biso   1.000  C
  H19      1.0000 0.46160  0.36030  0.54420  Biso   1.000  H
  C36      1.0000 0.29730  0.85190  0.65030  Biso   1.000  C
  H20      1.0000 0.30730  0.91240  0.62260  Biso   1.000  H
  C37      1.0000 0.25880  0.69680  0.69160  Biso   1.000  C
  C38      1.0000 0.23250  0.58320  0.70240  Biso   1.000  C
  C39      1.0000 0.20720  0.42340  0.74950  Biso   1.000  C
  C40      1.0000 0.19520  0.33360  0.79590  Biso   1.000  C
  C41      1.0000 0.18990  0.22300  0.78250  Biso   1.000  C
  H21      1.0000 0.19280  0.20650  0.74420  Biso   1.000  H
  C42      1.0000 0.18050  0.14170  0.82760  Biso   1.000  C
  H22      1.0000 0.17520  0.06890  0.81960  Biso   1.000  H
  C43      1.0000 0.18040  0.26380  0.89560  Biso   1.000  C
  H23      1.0000 0.17450  0.27750  0.93430  Biso   1.000  H
  C44      1.0000 0.19080  0.35030  0.85350  Biso   1.000  C
  H24      1.0000 0.19490  0.42180  0.86380  Biso   1.000  H
  C45      1.0000 0.26400  0.69850  0.94880  Biso   1.000  C
  C46      1.0000 0.14240  0.66990  0.95240  Biso   1.000  C
  C47      1.0000 0.98590  0.60740  0.94150  Biso   1.000  C
  C48      1.0000 0.89490  0.55810  0.91460  Biso   1.000  C
  C49      1.0000 0.90570  0.53150  0.85810  Biso   1.000  C
  H25      1.0000 0.97300  0.54420  0.83530  Biso   1.000  H
  C50      1.0000 0.81380  0.48500  0.83530  Biso   1.000  C
  H26      1.0000 0.82170  0.46500  0.79760  Biso   1.000  H
  C51      1.0000 0.70270  0.49590  0.91850  Biso   1.000  C
  H27      1.0000 0.63210  0.48400  0.93840  Biso   1.000  H
  C52      1.0000 0.79020  0.54170  0.94590  Biso   1.000  C
  H28      1.0000 0.77820  0.56030  0.98370  Biso   1.000  H
  N22      1.0000 0.33290  0.42840  0.50060  Biso   1.000  N
  N23      1.0000 0.13780  0.58540  0.48190  Biso   1.000  N
  N24      1.0000 0.00870  0.57530  0.41720  Biso   1.000  N
  N25      1.0000 0.09980  0.50480  0.40750  Biso   1.000  N
  N26      1.0000 0.98780  0.77800  0.52300  Biso   1.000  N
  N27      1.0000 0.86500  0.75770  0.45520  Biso   1.000  N
  N28      1.0000 0.17870  0.16220  0.88280  Biso   1.000  N
  N29      1.0000 0.22790  0.53060  0.75660  Biso   1.000  N
  N30      1.0000 0.21640  0.51630  0.66270  Biso   1.000  N
  N31      1.0000 0.19790  0.41220  0.69380  Biso   1.000  N
  N32      1.0000 0.29910  0.74590  0.73230  Biso   1.000  N
  N33      1.0000 0.32210  0.84900  0.70520  Biso   1.000  N
  N34      1.0000 0.25600  0.75750  0.63950  Biso   1.000  N
  N35      1.0000 0.72060  0.47010  0.86520  Biso   1.000  N
  N36      1.0000 0.09350  0.61370  0.91580  Biso   1.000  N
  N37      1.0000 0.06720  0.69720  0.99520  Biso   1.000  N
  N38      1.0000 0.96310  0.65670  0.98990  Biso   1.000  N
  N39      1.0000 0.33980  0.66990  0.90590  Biso   1.000  N
  N40      1.0000 0.30430  0.75190  0.98750  Biso   1.000  N
  Ag5      1.0000 0.16823  0.28569  0.63433  Biso   1.000  Ag
  Ag6      1.0000 0.13573  0.76174  0.57386  Biso   1.000  Ag
  Ag7      1.0000 0.21634  0.52400  0.57121  Biso   1.000  Ag
  Ag8      1.0000 0.28912  0.62661  0.82430  Biso   1.000  Ag
  N41      1.0000 0.82690  0.84730  0.48280  Biso   1.000  N
  N42      1.0000 0.41780  0.75900  0.96810  Biso   1.000  N
  C53      1.0000 0.89940  0.85940  0.52430  Biso   1.000  C
  H29      1.0000 0.89050  0.91410  0.54970  Biso   1.000  H
  C54      1.0000 0.43880  0.71120  0.91920  Biso   1.000  C
  H30      1.0000 0.50910  0.70690  0.89770  Biso   1.000  H
