data_image0
_cell_length_a       29.511
_cell_length_b       29.511
_cell_length_c       9.591
_cell_angle_alpha    90
_cell_angle_beta     90
_cell_angle_gamma    120

_symmetry_space_group_name_H-M    "P 1"
_symmetry_int_tables_number       1

loop_
  _symmetry_equiv_pos_as_xyz
  'x, y, z'

loop_
  _atom_site_label
  _atom_site_occupancy
  _atom_site_fract_x
  _atom_site_fract_y
  _atom_site_fract_z
  _atom_site_thermal_displace_type
  _atom_site_B_iso_or_equiv
  _atom_site_type_symbol
  Fe1      1.0000 0.49070  0.12834  0.61184  Biso   1.000  Fe
  Mn1      1.0000 0.53415  0.17872  0.12650  Biso   1.000  Mn
  C1       1.0000 0.38184  0.11090  0.64850  Biso   1.000  C
  H1       1.0000 0.39670  0.14700  0.65270  Biso   1.000  H
  C2       1.0000 0.32780  0.07920  0.65820  Biso   1.000  C
  H2       1.0000 0.30710  0.09450  0.66970  Biso   1.000  H
  C3       1.0000 0.30480  0.02650  0.65140  Biso   1.000  C
  H3       1.0000 0.26860  0.00550  0.65470  Biso   1.000  H
  C4       1.0000 0.33618  0.00500  0.63950  Biso   1.000  C
  H4       1.0000 0.32130  0.96880  0.63710  Biso   1.000  H
  C5       1.0000 0.39045  0.03695  0.63090  Biso   1.000  C
  C6       1.0000 0.42679  0.01782  0.63260  Biso   1.000  C
  C7       1.0000 0.41310  0.96572  0.63900  Biso   1.000  C
  H5       1.0000 0.37830  0.93990  0.62760  Biso   1.000  H
  C8       1.0000 0.45060  0.95170  0.66230  Biso   1.000  C
  H6       1.0000 0.44160  0.91670  0.66660  Biso   1.000  H
  C9       1.0000 0.50150  0.99080  0.67880  Biso   1.000  C
  H7       1.0000 0.52750  0.98280  0.69950  Biso   1.000  H
  C10      1.0000 0.51360  0.04190  0.66450  Biso   1.000  C
  H8       1.0000 0.54850  0.06800  0.67220  Biso   1.000  H
  C11      1.0000 0.49831  0.13904  0.80960  Biso   1.000  C
  C12      1.0000 0.56355  0.15750  0.58880  Biso   1.000  C
  C13      1.0000 0.49706  0.19469  0.58700  Biso   1.000  C
  C14      1.0000 0.48652  0.12209  0.41150  Biso   1.000  C
  N1       1.0000 0.41306  0.08997  0.63310  Biso   1.000  N
  N2       1.0000 0.47782  0.05621  0.63980  Biso   1.000  N
  N3       1.0000 0.50221  0.14381  0.92830  Biso   1.000  N
  N4       1.0000 0.60799  0.17452  0.56790  Biso   1.000  N
  N5       1.0000 0.50130  0.23526  0.56540  Biso   1.000  N
  N6       1.0000 0.48856  0.12484  0.29100  Biso   1.000  N
  Fe2      1.0000 0.87166  0.36236  0.61184  Biso   1.000  Fe
  Mn2      1.0000 0.82128  0.35543  0.12650  Biso   1.000  Mn
  C15      1.0000 0.88910  0.27094  0.64850  Biso   1.000  C
  H9       1.0000 0.85300  0.24970  0.65270  Biso   1.000  H
  C16      1.0000 0.92080  0.24860  0.65820  Biso   1.000  C
  H10      1.0000 0.90550  0.21260  0.66970  Biso   1.000  H
  C17      1.0000 0.97350  0.27830  0.65140  Biso   1.000  C
  H11      1.0000 0.99450  0.26310  0.65470  Biso   1.000  H
  C18      1.0000 0.99500  0.33118  0.63950  Biso   1.000  C
  H12      1.0000 0.03120  0.35250  0.63710  Biso   1.000  H
  C19      1.0000 0.96305  0.35350  0.63090  Biso   1.000  C
  C20      1.0000 0.98218  0.40897  0.63260  Biso   1.000  C
  C21      1.0000 0.03428  0.44738  0.63900  Biso   1.000  C
  H13      1.0000 0.06010  0.43840  0.62760  Biso   1.000  H
  C22      1.0000 0.04830  0.49890  0.66230  Biso   1.000  C
  H14      1.0000 0.08330  0.52490  0.66660  Biso   1.000  H
  C23      1.0000 0.00920  0.51070  0.67880  Biso   1.000  C
  H15      1.0000 0.01720  0.54470  0.69950  Biso   1.000  H
  C24      1.0000 0.95810  0.47170  0.66450  Biso   1.000  C
  H16      1.0000 0.93200  0.48050  0.67220  Biso   1.000  H
  C25      1.0000 0.86096  0.35927  0.80960  Biso   1.000  C
  C26      1.0000 0.84250  0.40605  0.58880  Biso   1.000  C
  C27      1.0000 0.80531  0.30237  0.58700  Biso   1.000  C
  C28      1.0000 0.87791  0.36443  0.41150  Biso   1.000  C
  N7       1.0000 0.91003  0.32309  0.63310  Biso   1.000  N
  N8       1.0000 0.94379  0.42161  0.63980  Biso   1.000  N
  N9       1.0000 0.85619  0.35840  0.92830  Biso   1.000  N
  N10      1.0000 0.82548  0.43347  0.56790  Biso   1.000  N
  N11      1.0000 0.76474  0.26604  0.56540  Biso   1.000  N
  N12      1.0000 0.87516  0.36372  0.29100  Biso   1.000  N
  Fe3      1.0000 0.63764  0.50930  0.61184  Biso   1.000  Fe
  Mn3      1.0000 0.64457  0.46585  0.12650  Biso   1.000  Mn
  C29      1.0000 0.72906  0.61816  0.64850  Biso   1.000  C
  H17      1.0000 0.75030  0.60330  0.65270  Biso   1.000  H
  C30      1.0000 0.75140  0.67220  0.65820  Biso   1.000  C
  H18      1.0000 0.78740  0.69290  0.66970  Biso   1.000  H
  C31      1.0000 0.72170  0.69520  0.65140  Biso   1.000  C
  H19      1.0000 0.73690  0.73140  0.65470  Biso   1.000  H
  C32      1.0000 0.66882  0.66382  0.63950  Biso   1.000  C
  H20      1.0000 0.64750  0.67870  0.63710  Biso   1.000  H
  C33      1.0000 0.64650  0.60955  0.63090  Biso   1.000  C
  C34      1.0000 0.59103  0.57321  0.63260  Biso   1.000  C
  C35      1.0000 0.55262  0.58690  0.63900  Biso   1.000  C
  H21      1.0000 0.56160  0.62170  0.62760  Biso   1.000  H
  C36      1.0000 0.50110  0.54940  0.66230  Biso   1.000  C
  H22      1.0000 0.47510  0.55840  0.66660  Biso   1.000  H
  C37      1.0000 0.48930  0.49850  0.67880  Biso   1.000  C
  H23      1.0000 0.45530  0.47250  0.69950  Biso   1.000  H
  C38      1.0000 0.52830  0.48640  0.66450  Biso   1.000  C
  H24      1.0000 0.51950  0.45150  0.67220  Biso   1.000  H
  C39      1.0000 0.64073  0.50169  0.80960  Biso   1.000  C
  C40      1.0000 0.59395  0.43645  0.58880  Biso   1.000  C
  C41      1.0000 0.69763  0.50294  0.58700  Biso   1.000  C
  C42      1.0000 0.63557  0.51348  0.41150  Biso   1.000  C
  N13      1.0000 0.67691  0.58694  0.63310  Biso   1.000  N
  N14      1.0000 0.57839  0.52218  0.63980  Biso   1.000  N
  N15      1.0000 0.64160  0.49779  0.92830  Biso   1.000  N
  N16      1.0000 0.56653  0.39201  0.56790  Biso   1.000  N
  N17      1.0000 0.73396  0.49870  0.56540  Biso   1.000  N
  N18      1.0000 0.63628  0.51144  0.29100  Biso   1.000  N
  Fe4      1.0000 0.84263  0.53833  0.05483  Biso   1.000  Fe
  Mn4      1.0000 0.79918  0.48795  0.54017  Biso   1.000  Mn
  C43      1.0000 0.95149  0.55577  0.01817  Biso   1.000  C
  H25      1.0000 0.93663  0.51967  0.01397  Biso   1.000  H
  C44      1.0000 0.00553  0.58747  0.00847  Biso   1.000  C
  H26      1.0000 0.02623  0.57217  0.99697  Biso   1.000  H
  C45      1.0000 0.02853  0.64017  0.01527  Biso   1.000  C
  H27      1.0000 0.06473  0.66117  0.01197  Biso   1.000  H
  C46      1.0000 0.99715  0.66167  0.02717  Biso   1.000  C
  H28      1.0000 0.01203  0.69787  0.02957  Biso   1.000  H
  C47      1.0000 0.94288  0.62972  0.03577  Biso   1.000  C
  C48      1.0000 0.90654  0.64885  0.03407  Biso   1.000  C
  C49      1.0000 0.92023  0.70095  0.02767  Biso   1.000  C
  H29      1.0000 0.95503  0.72677  0.03907  Biso   1.000  H
  C50      1.0000 0.88273  0.71497  0.00437  Biso   1.000  C
  H30      1.0000 0.89173  0.74997  0.00007  Biso   1.000  H
  C51      1.0000 0.83183  0.67587  0.98787  Biso   1.000  C
  H31      1.0000 0.80583  0.68387  0.96717  Biso   1.000  H
  C52      1.0000 0.81973  0.62477  0.00217  Biso   1.000  C
  H32      1.0000 0.78483  0.59867  0.99447  Biso   1.000  H
  C53      1.0000 0.83502  0.52763  0.85707  Biso   1.000  C
  C54      1.0000 0.76978  0.50917  0.07787  Biso   1.000  C
  C55      1.0000 0.83627  0.47198  0.07967  Biso   1.000  C
  C56      1.0000 0.84681  0.54458  0.25517  Biso   1.000  C
  N19      1.0000 0.92027  0.57670  0.03357  Biso   1.000  N
  N20      1.0000 0.85551  0.61046  0.02687  Biso   1.000  N
  N21      1.0000 0.83112  0.52286  0.73837  Biso   1.000  N
  N22      1.0000 0.72534  0.49215  0.09877  Biso   1.000  N
  N23      1.0000 0.83203  0.43141  0.10127  Biso   1.000  N
  N24      1.0000 0.84477  0.54183  0.37567  Biso   1.000  N
  Fe5      1.0000 0.46167  0.30431  0.05483  Biso   1.000  Fe
  Mn5      1.0000 0.51205  0.31124  0.54017  Biso   1.000  Mn
  C57      1.0000 0.44423  0.39573  0.01817  Biso   1.000  C
  H33      1.0000 0.48033  0.41697  0.01397  Biso   1.000  H
  C58      1.0000 0.41253  0.41807  0.00847  Biso   1.000  C
  H34      1.0000 0.42783  0.45407  0.99697  Biso   1.000  H
  C59      1.0000 0.35983  0.38837  0.01527  Biso   1.000  C
  H35      1.0000 0.33883  0.40357  0.01197  Biso   1.000  H
  C60      1.0000 0.33833  0.33549  0.02717  Biso   1.000  C
  H36      1.0000 0.30213  0.31417  0.02957  Biso   1.000  H
  C61      1.0000 0.37028  0.31317  0.03577  Biso   1.000  C
  C62      1.0000 0.35115  0.25770  0.03407  Biso   1.000  C
  C63      1.0000 0.29905  0.21929  0.02767  Biso   1.000  C
  H37      1.0000 0.27323  0.22827  0.03907  Biso   1.000  H
  C64      1.0000 0.28503  0.16777  0.00437  Biso   1.000  C
  H38      1.0000 0.25003  0.14177  0.00007  Biso   1.000  H
  C65      1.0000 0.32413  0.15597  0.98787  Biso   1.000  C
  H39      1.0000 0.31613  0.12197  0.96717  Biso   1.000  H
  C66      1.0000 0.37523  0.19497  0.00217  Biso   1.000  C
  H40      1.0000 0.40133  0.18617  0.99447  Biso   1.000  H
  C67      1.0000 0.47237  0.30740  0.85707  Biso   1.000  C
  C68      1.0000 0.49083  0.26062  0.07787  Biso   1.000  C
  C69      1.0000 0.52802  0.36430  0.07967  Biso   1.000  C
  C70      1.0000 0.45542  0.30224  0.25517  Biso   1.000  C
  N25      1.0000 0.42330  0.34358  0.03357  Biso   1.000  N
  N26      1.0000 0.38954  0.24506  0.02687  Biso   1.000  N
  N27      1.0000 0.47714  0.30827  0.73837  Biso   1.000  N
  N28      1.0000 0.50785  0.23320  0.09877  Biso   1.000  N
  N29      1.0000 0.56859  0.40063  0.10127  Biso   1.000  N
  N30      1.0000 0.45817  0.30295  0.37567  Biso   1.000  N
  Fe6      1.0000 0.69569  0.15737  0.05483  Biso   1.000  Fe
  Mn6      1.0000 0.68876  0.20082  0.54017  Biso   1.000  Mn
  C71      1.0000 0.60427  0.04851  0.01817  Biso   1.000  C
  H41      1.0000 0.58303  0.06337  0.01397  Biso   1.000  H
  C72      1.0000 0.58193  0.99447  0.00847  Biso   1.000  C
  H42      1.0000 0.54593  0.97377  0.99697  Biso   1.000  H
  C73      1.0000 0.61163  0.97147  0.01527  Biso   1.000  C
  H43      1.0000 0.59643  0.93527  0.01197  Biso   1.000  H
  C74      1.0000 0.66451  0.00285  0.02717  Biso   1.000  C
  H44      1.0000 0.68583  0.98797  0.02957  Biso   1.000  H
  C75      1.0000 0.68683  0.05712  0.03577  Biso   1.000  C
  C76      1.0000 0.74230  0.09346  0.03407  Biso   1.000  C
  C77      1.0000 0.78071  0.07977  0.02767  Biso   1.000  C
  H45      1.0000 0.77173  0.04497  0.03907  Biso   1.000  H
  C78      1.0000 0.83223  0.11727  0.00437  Biso   1.000  C
  H46      1.0000 0.85823  0.10827  0.00007  Biso   1.000  H
  C79      1.0000 0.84403  0.16817  0.98787  Biso   1.000  C
  H47      1.0000 0.87803  0.19417  0.96717  Biso   1.000  H
  C80      1.0000 0.80503  0.18027  0.00217  Biso   1.000  C
  H48      1.0000 0.81383  0.21517  0.99447  Biso   1.000  H
  C81      1.0000 0.69260  0.16498  0.85707  Biso   1.000  C
  C82      1.0000 0.73938  0.23022  0.07787  Biso   1.000  C
  C83      1.0000 0.63570  0.16373  0.07967  Biso   1.000  C
  C84      1.0000 0.69776  0.15319  0.25517  Biso   1.000  C
  N31      1.0000 0.65642  0.07973  0.03357  Biso   1.000  N
  N32      1.0000 0.75494  0.14449  0.02687  Biso   1.000  N
  N33      1.0000 0.69173  0.16888  0.73837  Biso   1.000  N
  N34      1.0000 0.76680  0.27466  0.09877  Biso   1.000  N
  N35      1.0000 0.59937  0.16797  0.10127  Biso   1.000  N
  N36      1.0000 0.69705  0.15523  0.37567  Biso   1.000  N
  Fe7      1.0000 0.15737  0.46167  0.94517  Biso   1.000  Fe
  Mn7      1.0000 0.20082  0.51205  0.45983  Biso   1.000  Mn
  C85      1.0000 0.04851  0.44423  0.98183  Biso   1.000  C
  H49      1.0000 0.06337  0.48033  0.98603  Biso   1.000  H
  C86      1.0000 0.99447  0.41253  0.99153  Biso   1.000  C
  H50      1.0000 0.97377  0.42783  0.00303  Biso   1.000  H
  C87      1.0000 0.97147  0.35983  0.98473  Biso   1.000  C
  H51      1.0000 0.93527  0.33883  0.98803  Biso   1.000  H
  C88      1.0000 0.00285  0.33833  0.97283  Biso   1.000  C
  H52      1.0000 0.98797  0.30213  0.97043  Biso   1.000  H
  C89      1.0000 0.05712  0.37028  0.96423  Biso   1.000  C
  C90      1.0000 0.09346  0.35115  0.96593  Biso   1.000  C
  C91      1.0000 0.07977  0.29905  0.97233  Biso   1.000  C
  H53      1.0000 0.04497  0.27323  0.96093  Biso   1.000  H
  C92      1.0000 0.11727  0.28503  0.99563  Biso   1.000  C
  H54      1.0000 0.10827  0.25003  0.99993  Biso   1.000  H
  C93      1.0000 0.16817  0.32413  0.01213  Biso   1.000  C
  H55      1.0000 0.19417  0.31613  0.03283  Biso   1.000  H
  C94      1.0000 0.18027  0.37523  0.99783  Biso   1.000  C
  H56      1.0000 0.21517  0.40133  0.00553  Biso   1.000  H
  C95      1.0000 0.16498  0.47237  0.14293  Biso   1.000  C
  C96      1.0000 0.23022  0.49083  0.92213  Biso   1.000  C
  C97      1.0000 0.16373  0.52802  0.92033  Biso   1.000  C
  C98      1.0000 0.15319  0.45542  0.74483  Biso   1.000  C
  N37      1.0000 0.07973  0.42330  0.96643  Biso   1.000  N
  N38      1.0000 0.14449  0.38954  0.97313  Biso   1.000  N
  N39      1.0000 0.16888  0.47714  0.26163  Biso   1.000  N
  N40      1.0000 0.27466  0.50785  0.90123  Biso   1.000  N
  N41      1.0000 0.16797  0.56859  0.89873  Biso   1.000  N
  N42      1.0000 0.15523  0.45817  0.62433  Biso   1.000  N
  Fe8      1.0000 0.53833  0.69569  0.94517  Biso   1.000  Fe
  Mn8      1.0000 0.48795  0.68876  0.45983  Biso   1.000  Mn
  C99      1.0000 0.55577  0.60427  0.98183  Biso   1.000  C
  H57      1.0000 0.51967  0.58303  0.98603  Biso   1.000  H
  C100     1.0000 0.58747  0.58193  0.99153  Biso   1.000  C
  H58      1.0000 0.57217  0.54593  0.00303  Biso   1.000  H
  C101     1.0000 0.64017  0.61163  0.98473  Biso   1.000  C
  H59      1.0000 0.66117  0.59643  0.98803  Biso   1.000  H
  C102     1.0000 0.66167  0.66451  0.97283  Biso   1.000  C
  H60      1.0000 0.69787  0.68583  0.97043  Biso   1.000  H
  C103     1.0000 0.62972  0.68683  0.96423  Biso   1.000  C
  C104     1.0000 0.64885  0.74230  0.96593  Biso   1.000  C
  C105     1.0000 0.70095  0.78071  0.97233  Biso   1.000  C
  H61      1.0000 0.72677  0.77173  0.96093  Biso   1.000  H
  C106     1.0000 0.71497  0.83223  0.99563  Biso   1.000  C
  H62      1.0000 0.74997  0.85823  0.99993  Biso   1.000  H
  C107     1.0000 0.67587  0.84403  0.01213  Biso   1.000  C
  H63      1.0000 0.68387  0.87803  0.03283  Biso   1.000  H
  C108     1.0000 0.62477  0.80503  0.99783  Biso   1.000  C
  H64      1.0000 0.59867  0.81383  0.00553  Biso   1.000  H
  C109     1.0000 0.52763  0.69260  0.14293  Biso   1.000  C
  C110     1.0000 0.50917  0.73938  0.92213  Biso   1.000  C
  C111     1.0000 0.47198  0.63570  0.92033  Biso   1.000  C
  C112     1.0000 0.54458  0.69776  0.74483  Biso   1.000  C
  N43      1.0000 0.57670  0.65642  0.96643  Biso   1.000  N
  N44      1.0000 0.61046  0.75494  0.97313  Biso   1.000  N
  N45      1.0000 0.52286  0.69173  0.26163  Biso   1.000  N
  N46      1.0000 0.49215  0.76680  0.90123  Biso   1.000  N
  N47      1.0000 0.43141  0.59937  0.89873  Biso   1.000  N
  N48      1.0000 0.54183  0.69705  0.62433  Biso   1.000  N
  Fe9      1.0000 0.30431  0.84263  0.94517  Biso   1.000  Fe
  Mn9      1.0000 0.31124  0.79918  0.45983  Biso   1.000  Mn
  C113     1.0000 0.39573  0.95149  0.98183  Biso   1.000  C
  H65      1.0000 0.41697  0.93663  0.98603  Biso   1.000  H
  C114     1.0000 0.41807  0.00553  0.99153  Biso   1.000  C
  H66      1.0000 0.45407  0.02623  0.00303  Biso   1.000  H
  C115     1.0000 0.38837  0.02853  0.98473  Biso   1.000  C
  H67      1.0000 0.40357  0.06473  0.98803  Biso   1.000  H
  C116     1.0000 0.33549  0.99715  0.97283  Biso   1.000  C
  H68      1.0000 0.31417  0.01203  0.97043  Biso   1.000  H
  C117     1.0000 0.31317  0.94288  0.96423  Biso   1.000  C
  C118     1.0000 0.25770  0.90654  0.96593  Biso   1.000  C
  C119     1.0000 0.21929  0.92023  0.97233  Biso   1.000  C
  H69      1.0000 0.22827  0.95503  0.96093  Biso   1.000  H
  C120     1.0000 0.16777  0.88273  0.99563  Biso   1.000  C
  H70      1.0000 0.14177  0.89173  0.99993  Biso   1.000  H
  C121     1.0000 0.15597  0.83183  0.01213  Biso   1.000  C
  H71      1.0000 0.12197  0.80583  0.03283  Biso   1.000  H
  C122     1.0000 0.19497  0.81973  0.99783  Biso   1.000  C
  H72      1.0000 0.18617  0.78483  0.00553  Biso   1.000  H
  C123     1.0000 0.30740  0.83502  0.14293  Biso   1.000  C
  C124     1.0000 0.26062  0.76978  0.92213  Biso   1.000  C
  C125     1.0000 0.36430  0.83627  0.92033  Biso   1.000  C
  C126     1.0000 0.30224  0.84681  0.74483  Biso   1.000  C
  N49      1.0000 0.34358  0.92027  0.96643  Biso   1.000  N
  N50      1.0000 0.24506  0.85551  0.97313  Biso   1.000  N
  N51      1.0000 0.30827  0.83112  0.26163  Biso   1.000  N
  N52      1.0000 0.23320  0.72534  0.90123  Biso   1.000  N
  N53      1.0000 0.40063  0.83203  0.89873  Biso   1.000  N
  N54      1.0000 0.30295  0.84477  0.62433  Biso   1.000  N
  Fe10     1.0000 0.50930  0.87166  0.38816  Biso   1.000  Fe
  Mn10     1.0000 0.46585  0.82128  0.87350  Biso   1.000  Mn
  C127     1.0000 0.61816  0.88910  0.35150  Biso   1.000  C
  H73      1.0000 0.60330  0.85300  0.34730  Biso   1.000  H
  C128     1.0000 0.67220  0.92080  0.34180  Biso   1.000  C
  H74      1.0000 0.69290  0.90550  0.33030  Biso   1.000  H
  C129     1.0000 0.69520  0.97350  0.34860  Biso   1.000  C
  H75      1.0000 0.73140  0.99450  0.34530  Biso   1.000  H
  C130     1.0000 0.66382  0.99500  0.36050  Biso   1.000  C
  H76      1.0000 0.67870  0.03120  0.36290  Biso   1.000  H
  C131     1.0000 0.60955  0.96305  0.36910  Biso   1.000  C
  C132     1.0000 0.57321  0.98218  0.36740  Biso   1.000  C
  C133     1.0000 0.58690  0.03428  0.36100  Biso   1.000  C
  H77      1.0000 0.62170  0.06010  0.37240  Biso   1.000  H
  C134     1.0000 0.54940  0.04830  0.33770  Biso   1.000  C
  H78      1.0000 0.55840  0.08330  0.33340  Biso   1.000  H
  C135     1.0000 0.49850  0.00920  0.32120  Biso   1.000  C
  H79      1.0000 0.47250  0.01720  0.30050  Biso   1.000  H
  C136     1.0000 0.48640  0.95810  0.33550  Biso   1.000  C
  H80      1.0000 0.45150  0.93200  0.32780  Biso   1.000  H
  C137     1.0000 0.50169  0.86096  0.19040  Biso   1.000  C
  C138     1.0000 0.43645  0.84250  0.41120  Biso   1.000  C
  C139     1.0000 0.50294  0.80531  0.41300  Biso   1.000  C
  C140     1.0000 0.51348  0.87791  0.58850  Biso   1.000  C
  N55      1.0000 0.58694  0.91003  0.36690  Biso   1.000  N
  N56      1.0000 0.52218  0.94379  0.36020  Biso   1.000  N
  N57      1.0000 0.49779  0.85619  0.07170  Biso   1.000  N
  N58      1.0000 0.39201  0.82548  0.43210  Biso   1.000  N
  N59      1.0000 0.49870  0.76474  0.43460  Biso   1.000  N
  N60      1.0000 0.51144  0.87516  0.70900  Biso   1.000  N
  Fe11     1.0000 0.12834  0.63764  0.38816  Biso   1.000  Fe
  Mn11     1.0000 0.17872  0.64457  0.87350  Biso   1.000  Mn
  C141     1.0000 0.11090  0.72906  0.35150  Biso   1.000  C
  H81      1.0000 0.14700  0.75030  0.34730  Biso   1.000  H
  C142     1.0000 0.07920  0.75140  0.34180  Biso   1.000  C
  H82      1.0000 0.09450  0.78740  0.33030  Biso   1.000  H
  C143     1.0000 0.02650  0.72170  0.34860  Biso   1.000  C
  H83      1.0000 0.00550  0.73690  0.34530  Biso   1.000  H
  C144     1.0000 0.00500  0.66882  0.36050  Biso   1.000  C
  H84      1.0000 0.96880  0.64750  0.36290  Biso   1.000  H
  C145     1.0000 0.03695  0.64650  0.36910  Biso   1.000  C
  C146     1.0000 0.01782  0.59103  0.36740  Biso   1.000  C
  C147     1.0000 0.96572  0.55262  0.36100  Biso   1.000  C
  H85      1.0000 0.93990  0.56160  0.37240  Biso   1.000  H
  C148     1.0000 0.95170  0.50110  0.33770  Biso   1.000  C
  H86      1.0000 0.91670  0.47510  0.33340  Biso   1.000  H
  C149     1.0000 0.99080  0.48930  0.32120  Biso   1.000  C
  H87      1.0000 0.98280  0.45530  0.30050  Biso   1.000  H
  C150     1.0000 0.04190  0.52830  0.33550  Biso   1.000  C
  H88      1.0000 0.06800  0.51950  0.32780  Biso   1.000  H
  C151     1.0000 0.13904  0.64073  0.19040  Biso   1.000  C
  C152     1.0000 0.15750  0.59395  0.41120  Biso   1.000  C
  C153     1.0000 0.19469  0.69763  0.41300  Biso   1.000  C
  C154     1.0000 0.12209  0.63557  0.58850  Biso   1.000  C
  N61      1.0000 0.08997  0.67691  0.36690  Biso   1.000  N
  N62      1.0000 0.05621  0.57839  0.36020  Biso   1.000  N
  N63      1.0000 0.14381  0.64160  0.07170  Biso   1.000  N
  N64      1.0000 0.17452  0.56653  0.43210  Biso   1.000  N
  N65      1.0000 0.23526  0.73396  0.43460  Biso   1.000  N
  N66      1.0000 0.12484  0.63628  0.70900  Biso   1.000  N
  Fe12     1.0000 0.36236  0.49070  0.38816  Biso   1.000  Fe
  Mn12     1.0000 0.35543  0.53415  0.87350  Biso   1.000  Mn
  C155     1.0000 0.27094  0.38184  0.35150  Biso   1.000  C
  H89      1.0000 0.24970  0.39670  0.34730  Biso   1.000  H
  C156     1.0000 0.24860  0.32780  0.34180  Biso   1.000  C
  H90      1.0000 0.21260  0.30710  0.33030  Biso   1.000  H
  C157     1.0000 0.27830  0.30480  0.34860  Biso   1.000  C
  H91      1.0000 0.26310  0.26860  0.34530  Biso   1.000  H
  C158     1.0000 0.33118  0.33618  0.36050  Biso   1.000  C
  H92      1.0000 0.35250  0.32130  0.36290  Biso   1.000  H
  C159     1.0000 0.35350  0.39045  0.36910  Biso   1.000  C
  C160     1.0000 0.40897  0.42679  0.36740  Biso   1.000  C
  C161     1.0000 0.44738  0.41310  0.36100  Biso   1.000  C
  H93      1.0000 0.43840  0.37830  0.37240  Biso   1.000  H
  C162     1.0000 0.49890  0.45060  0.33770  Biso   1.000  C
  H94      1.0000 0.52490  0.44160  0.33340  Biso   1.000  H
  C163     1.0000 0.51070  0.50150  0.32120  Biso   1.000  C
  H95      1.0000 0.54470  0.52750  0.30050  Biso   1.000  H
  C164     1.0000 0.47170  0.51360  0.33550  Biso   1.000  C
  H96      1.0000 0.48050  0.54850  0.32780  Biso   1.000  H
  C165     1.0000 0.35927  0.49831  0.19040  Biso   1.000  C
  C166     1.0000 0.40605  0.56355  0.41120  Biso   1.000  C
  C167     1.0000 0.30237  0.49706  0.41300  Biso   1.000  C
  C168     1.0000 0.36443  0.48652  0.58850  Biso   1.000  C
  N67      1.0000 0.32309  0.41306  0.36690  Biso   1.000  N
  N68      1.0000 0.42161  0.47782  0.36020  Biso   1.000  N
  N69      1.0000 0.35840  0.50221  0.07170  Biso   1.000  N
  N70      1.0000 0.43347  0.60799  0.43210  Biso   1.000  N
  N71      1.0000 0.26604  0.50130  0.43460  Biso   1.000  N
  N72      1.0000 0.36372  0.48856  0.70900  Biso   1.000  N
  Fe13     1.0000 0.82403  0.79501  0.27851  Biso   1.000  Fe
  Mn13     1.0000 0.86748  0.84539  0.79317  Biso   1.000  Mn
  C169     1.0000 0.71517  0.77757  0.31517  Biso   1.000  C
  H97      1.0000 0.73003  0.81367  0.31937  Biso   1.000  H
  C170     1.0000 0.66113  0.74587  0.32487  Biso   1.000  C
  H98      1.0000 0.64043  0.76117  0.33637  Biso   1.000  H
  C171     1.0000 0.63813  0.69317  0.31807  Biso   1.000  C
  H99      1.0000 0.60193  0.67217  0.32137  Biso   1.000  H
  C172     1.0000 0.66951  0.67167  0.30617  Biso   1.000  C
  H100     1.0000 0.65463  0.63547  0.30377  Biso   1.000  H
  C173     1.0000 0.72378  0.70362  0.29757  Biso   1.000  C
  C174     1.0000 0.76012  0.68449  0.29927  Biso   1.000  C
  C175     1.0000 0.74643  0.63239  0.30567  Biso   1.000  C
  H101     1.0000 0.71163  0.60657  0.29427  Biso   1.000  H
  C176     1.0000 0.78393  0.61837  0.32897  Biso   1.000  C
  H102     1.0000 0.77493  0.58337  0.33327  Biso   1.000  H
  C177     1.0000 0.83483  0.65747  0.34547  Biso   1.000  C
  H103     1.0000 0.86083  0.64947  0.36617  Biso   1.000  H
  C178     1.0000 0.84693  0.70857  0.33117  Biso   1.000  C
  H104     1.0000 0.88183  0.73467  0.33887  Biso   1.000  H
  C179     1.0000 0.83164  0.80571  0.47627  Biso   1.000  C
  C180     1.0000 0.89688  0.82417  0.25547  Biso   1.000  C
  C181     1.0000 0.83039  0.86136  0.25367  Biso   1.000  C
  C182     1.0000 0.81985  0.78876  0.07817  Biso   1.000  C
  N73      1.0000 0.74639  0.75664  0.29977  Biso   1.000  N
  N74      1.0000 0.81115  0.72288  0.30647  Biso   1.000  N
  N75      1.0000 0.83554  0.81048  0.59497  Biso   1.000  N
  N76      1.0000 0.94132  0.84119  0.23457  Biso   1.000  N
  N77      1.0000 0.83463  0.90193  0.23207  Biso   1.000  N
  N78      1.0000 0.82189  0.79151  0.95767  Biso   1.000  N
  Fe14     1.0000 0.20499  0.02903  0.27851  Biso   1.000  Fe
  Mn14     1.0000 0.15461  0.02210  0.79317  Biso   1.000  Mn
  C183     1.0000 0.22243  0.93761  0.31517  Biso   1.000  C
  H105     1.0000 0.18633  0.91637  0.31937  Biso   1.000  H
  C184     1.0000 0.25413  0.91527  0.32487  Biso   1.000  C
  H106     1.0000 0.23883  0.87927  0.33637  Biso   1.000  H
  C185     1.0000 0.30683  0.94497  0.31807  Biso   1.000  C
  H107     1.0000 0.32783  0.92977  0.32137  Biso   1.000  H
  C186     1.0000 0.32833  0.99785  0.30617  Biso   1.000  C
  H108     1.0000 0.36453  0.01917  0.30377  Biso   1.000  H
  C187     1.0000 0.29638  0.02017  0.29757  Biso   1.000  C
  C188     1.0000 0.31551  0.07564  0.29927  Biso   1.000  C
  C189     1.0000 0.36761  0.11405  0.30567  Biso   1.000  C
  H109     1.0000 0.39343  0.10507  0.29427  Biso   1.000  H
  C190     1.0000 0.38163  0.16557  0.32897  Biso   1.000  C
  H110     1.0000 0.41663  0.19157  0.33327  Biso   1.000  H
  C191     1.0000 0.34253  0.17737  0.34547  Biso   1.000  C
  H111     1.0000 0.35053  0.21137  0.36617  Biso   1.000  H
  C192     1.0000 0.29143  0.13837  0.33117  Biso   1.000  C
  H112     1.0000 0.26533  0.14717  0.33887  Biso   1.000  H
  C193     1.0000 0.19429  0.02594  0.47627  Biso   1.000  C
  C194     1.0000 0.17583  0.07272  0.25547  Biso   1.000  C
  C195     1.0000 0.13864  0.96904  0.25367  Biso   1.000  C
  C196     1.0000 0.21124  0.03110  0.07817  Biso   1.000  C
  N79      1.0000 0.24336  0.98976  0.29977  Biso   1.000  N
  N80      1.0000 0.27712  0.08828  0.30647  Biso   1.000  N
  N81      1.0000 0.18952  0.02507  0.59497  Biso   1.000  N
  N82      1.0000 0.15881  0.10014  0.23457  Biso   1.000  N
  N83      1.0000 0.09807  0.93271  0.23207  Biso   1.000  N
  N84      1.0000 0.20849  0.03039  0.95767  Biso   1.000  N
  Fe15     1.0000 0.97097  0.17597  0.27851  Biso   1.000  Fe
  Mn15     1.0000 0.97790  0.13252  0.79317  Biso   1.000  Mn
  C197     1.0000 0.06239  0.28483  0.31517  Biso   1.000  C
  H113     1.0000 0.08363  0.26997  0.31937  Biso   1.000  H
  C198     1.0000 0.08473  0.33887  0.32487  Biso   1.000  C
  H114     1.0000 0.12073  0.35957  0.33637  Biso   1.000  H
  C199     1.0000 0.05503  0.36187  0.31807  Biso   1.000  C
  H115     1.0000 0.07023  0.39807  0.32137  Biso   1.000  H
  C200     1.0000 0.00215  0.33049  0.30617  Biso   1.000  C
  H116     1.0000 0.98083  0.34537  0.30377  Biso   1.000  H
  C201     1.0000 0.97983  0.27622  0.29757  Biso   1.000  C
  C202     1.0000 0.92436  0.23988  0.29927  Biso   1.000  C
  C203     1.0000 0.88595  0.25357  0.30567  Biso   1.000  C
  H117     1.0000 0.89493  0.28837  0.29427  Biso   1.000  H
  C204     1.0000 0.83443  0.21607  0.32897  Biso   1.000  C
  H118     1.0000 0.80843  0.22507  0.33327  Biso   1.000  H
  C205     1.0000 0.82263  0.16517  0.34547  Biso   1.000  C
  H119     1.0000 0.78863  0.13917  0.36617  Biso   1.000  H
  C206     1.0000 0.86163  0.15307  0.33117  Biso   1.000  C
  H120     1.0000 0.85283  0.11817  0.33887  Biso   1.000  H
  C207     1.0000 0.97406  0.16836  0.47627  Biso   1.000  C
  C208     1.0000 0.92728  0.10312  0.25547  Biso   1.000  C
  C209     1.0000 0.03096  0.16961  0.25367  Biso   1.000  C
  C210     1.0000 0.96890  0.18015  0.07817  Biso   1.000  C
  N85      1.0000 0.01024  0.25361  0.29977  Biso   1.000  N
  N86      1.0000 0.91172  0.18885  0.30647  Biso   1.000  N
  N87      1.0000 0.97493  0.16446  0.59497  Biso   1.000  N
  N88      1.0000 0.89986  0.05868  0.23457  Biso   1.000  N
  N89      1.0000 0.06729  0.16537  0.23207  Biso   1.000  N
  N90      1.0000 0.96961  0.17811  0.95767  Biso   1.000  N
  Fe16     1.0000 0.17597  0.20499  0.72149  Biso   1.000  Fe
  Mn16     1.0000 0.13252  0.15461  0.20683  Biso   1.000  Mn
  C211     1.0000 0.28483  0.22243  0.68483  Biso   1.000  C
  H121     1.0000 0.26997  0.18633  0.68063  Biso   1.000  H
  C212     1.0000 0.33887  0.25413  0.67513  Biso   1.000  C
  H122     1.0000 0.35957  0.23883  0.66363  Biso   1.000  H
  C213     1.0000 0.36187  0.30683  0.68193  Biso   1.000  C
  H123     1.0000 0.39807  0.32783  0.67863  Biso   1.000  H
  C214     1.0000 0.33049  0.32833  0.69383  Biso   1.000  C
  H124     1.0000 0.34537  0.36453  0.69623  Biso   1.000  H
  C215     1.0000 0.27622  0.29638  0.70243  Biso   1.000  C
  C216     1.0000 0.23988  0.31551  0.70073  Biso   1.000  C
  C217     1.0000 0.25357  0.36761  0.69433  Biso   1.000  C
  H125     1.0000 0.28837  0.39343  0.70573  Biso   1.000  H
  C218     1.0000 0.21607  0.38163  0.67103  Biso   1.000  C
  H126     1.0000 0.22507  0.41663  0.66673  Biso   1.000  H
  C219     1.0000 0.16517  0.34253  0.65453  Biso   1.000  C
  H127     1.0000 0.13917  0.35053  0.63383  Biso   1.000  H
  C220     1.0000 0.15307  0.29143  0.66883  Biso   1.000  C
  H128     1.0000 0.11817  0.26533  0.66113  Biso   1.000  H
  C221     1.0000 0.16836  0.19429  0.52373  Biso   1.000  C
  C222     1.0000 0.10312  0.17583  0.74453  Biso   1.000  C
  C223     1.0000 0.16961  0.13864  0.74633  Biso   1.000  C
  C224     1.0000 0.18015  0.21124  0.92183  Biso   1.000  C
  N91      1.0000 0.25361  0.24336  0.70023  Biso   1.000  N
  N92      1.0000 0.18885  0.27712  0.69353  Biso   1.000  N
  N93      1.0000 0.16446  0.18952  0.40503  Biso   1.000  N
  N94      1.0000 0.05868  0.15881  0.76543  Biso   1.000  N
  N95      1.0000 0.16537  0.09807  0.76793  Biso   1.000  N
  N96      1.0000 0.17811  0.20849  0.04233  Biso   1.000  N
  Fe17     1.0000 0.79501  0.97097  0.72149  Biso   1.000  Fe
  Mn17     1.0000 0.84539  0.97790  0.20683  Biso   1.000  Mn
  C225     1.0000 0.77757  0.06239  0.68483  Biso   1.000  C
  H129     1.0000 0.81367  0.08363  0.68063  Biso   1.000  H
  C226     1.0000 0.74587  0.08473  0.67513  Biso   1.000  C
  H130     1.0000 0.76117  0.12073  0.66363  Biso   1.000  H
  C227     1.0000 0.69317  0.05503  0.68193  Biso   1.000  C
  H131     1.0000 0.67217  0.07023  0.67863  Biso   1.000  H
  C228     1.0000 0.67167  0.00215  0.69383  Biso   1.000  C
  H132     1.0000 0.63547  0.98083  0.69623  Biso   1.000  H
  C229     1.0000 0.70362  0.97983  0.70243  Biso   1.000  C
  C230     1.0000 0.68449  0.92436  0.70073  Biso   1.000  C
  C231     1.0000 0.63239  0.88595  0.69433  Biso   1.000  C
  H133     1.0000 0.60657  0.89493  0.70573  Biso   1.000  H
  C232     1.0000 0.61837  0.83443  0.67103  Biso   1.000  C
  H134     1.0000 0.58337  0.80843  0.66673  Biso   1.000  H
  C233     1.0000 0.65747  0.82263  0.65453  Biso   1.000  C
  H135     1.0000 0.64947  0.78863  0.63383  Biso   1.000  H
  C234     1.0000 0.70857  0.86163  0.66883  Biso   1.000  C
  H136     1.0000 0.73467  0.85283  0.66113  Biso   1.000  H
  C235     1.0000 0.80571  0.97406  0.52373  Biso   1.000  C
  C236     1.0000 0.82417  0.92728  0.74453  Biso   1.000  C
  C237     1.0000 0.86136  0.03096  0.74633  Biso   1.000  C
  C238     1.0000 0.78876  0.96890  0.92183  Biso   1.000  C
  N97      1.0000 0.75664  0.01024  0.70023  Biso   1.000  N
  N98      1.0000 0.72288  0.91172  0.69353  Biso   1.000  N
  N99      1.0000 0.81048  0.97493  0.40503  Biso   1.000  N
  N100     1.0000 0.84119  0.89986  0.76543  Biso   1.000  N
  N101     1.0000 0.90193  0.06729  0.76793  Biso   1.000  N
  N102     1.0000 0.79151  0.96961  0.04233  Biso   1.000  N
  Fe18     1.0000 0.02903  0.82403  0.72149  Biso   1.000  Fe
  Mn18     1.0000 0.02210  0.86748  0.20683  Biso   1.000  Mn
  C239     1.0000 0.93761  0.71517  0.68483  Biso   1.000  C
  H137     1.0000 0.91637  0.73003  0.68063  Biso   1.000  H
  C240     1.0000 0.91527  0.66113  0.67513  Biso   1.000  C
  H138     1.0000 0.87927  0.64043  0.66363  Biso   1.000  H
  C241     1.0000 0.94497  0.63813  0.68193  Biso   1.000  C
  H139     1.0000 0.92977  0.60193  0.67863  Biso   1.000  H
  C242     1.0000 0.99785  0.66951  0.69383  Biso   1.000  C
  H140     1.0000 0.01917  0.65463  0.69623  Biso   1.000  H
  C243     1.0000 0.02017  0.72378  0.70243  Biso   1.000  C
  C244     1.0000 0.07564  0.76012  0.70073  Biso   1.000  C
  C245     1.0000 0.11405  0.74643  0.69433  Biso   1.000  C
  H141     1.0000 0.10507  0.71163  0.70573  Biso   1.000  H
  C246     1.0000 0.16557  0.78393  0.67103  Biso   1.000  C
  H142     1.0000 0.19157  0.77493  0.66673  Biso   1.000  H
  C247     1.0000 0.17737  0.83483  0.65453  Biso   1.000  C
  H143     1.0000 0.21137  0.86083  0.63383  Biso   1.000  H
  C248     1.0000 0.13837  0.84693  0.66883  Biso   1.000  C
  H144     1.0000 0.14717  0.88183  0.66113  Biso   1.000  H
  C249     1.0000 0.02594  0.83164  0.52373  Biso   1.000  C
  C250     1.0000 0.07272  0.89688  0.74453  Biso   1.000  C
  C251     1.0000 0.96904  0.83039  0.74633  Biso   1.000  C
  C252     1.0000 0.03110  0.81985  0.92183  Biso   1.000  C
  N103     1.0000 0.98976  0.74639  0.70023  Biso   1.000  N
  N104     1.0000 0.08828  0.81115  0.69353  Biso   1.000  N
  N105     1.0000 0.02507  0.83554  0.40503  Biso   1.000  N
  N106     1.0000 0.10014  0.94132  0.76543  Biso   1.000  N
  N107     1.0000 0.93271  0.83463  0.76793  Biso   1.000  N
  N108     1.0000 0.03039  0.82189  0.04233  Biso   1.000  N
