data_image0
_cell_length_a       21.383
_cell_length_b       18.94
_cell_length_c       9.587
_cell_angle_alpha    90
_cell_angle_beta     94.379
_cell_angle_gamma    90

_symmetry_space_group_name_H-M    "P 1"
_symmetry_int_tables_number       1

loop_
  _symmetry_equiv_pos_as_xyz
  'x, y, z'

loop_
  _atom_site_label
  _atom_site_occupancy
  _atom_site_fract_x
  _atom_site_fract_y
  _atom_site_fract_z
  _atom_site_thermal_displace_type
  _atom_site_B_iso_or_equiv
  _atom_site_type_symbol
  Zn1      1.0000 0.53555  0.39544  0.60423  Biso   1.000  Zn
  Zn2      1.0000 0.54305  0.10365  0.78341  Biso   1.000  Zn
  O1       1.0000 0.63390  0.10280  0.74200  Biso   1.000  O
  C1       1.0000 0.23370  0.00070  0.39690  Biso   1.000  C
  C2       1.0000 0.64380  0.97830  0.73560  Biso   1.000  C
  O2       1.0000 0.55480  0.00540  0.85930  Biso   1.000  O
  C3       1.0000 0.74490  0.99880  0.57080  Biso   1.000  C
  N1       1.0000 0.28290  0.13190  0.44660  Biso   1.000  N
  C4       1.0000 0.23120  0.12370  0.36340  Biso   1.000  C
  H1       1.0000 0.21110  0.16400  0.32720  Biso   1.000  H
  O3       1.0000 0.47620  0.13400  0.90190  Biso   1.000  O
  C5       1.0000 0.39690  0.02320  0.65420  Biso   1.000  C
  H2       1.0000 0.37270  0.98000  0.64520  Biso   1.000  H
  H3       1.0000 0.40570  0.03300  0.75310  Biso   1.000  H
  C6       1.0000 0.71490  0.05540  0.62370  Biso   1.000  C
  N2       1.0000 0.36080  0.08080  0.58930  Biso   1.000  N
  N3       1.0000 0.78830  0.13000  0.52020  Biso   1.000  N
  C7       1.0000 0.45200  0.27890  0.29460  Biso   1.000  C
  C8       1.0000 0.13120  0.98040  0.20110  Biso   1.000  C
  N4       1.0000 0.79520  0.00400  0.49720  Biso   1.000  N
  C9       1.0000 0.66100  0.04810  0.70430  Biso   1.000  C
  C10      1.0000 0.48980  0.24410  0.20770  Biso   1.000  C
  H4       1.0000 0.53270  0.25250  0.21440  Biso   1.000  H
  C11      1.0000 0.39650  0.14690  0.59640  Biso   1.000  C
  H5       1.0000 0.40630  0.16010  0.69330  Biso   1.000  H
  H6       1.0000 0.37170  0.18430  0.55080  Biso   1.000  H
  O4       1.0000 0.56190  0.16300  0.02910  Biso   1.000  O
  C12      1.0000 0.81580  0.06990  0.47880  Biso   1.000  C
  C13      1.0000 0.15990  0.92710  0.27310  Biso   1.000  C
  H7       1.0000 0.14510  0.88160  0.25420  Biso   1.000  H
  N5       1.0000 0.49410  0.07960  0.59260  Biso   1.000  N
  H8       1.0000 0.52450  0.07210  0.53280  Biso   1.000  H
  C14      1.0000 0.20490  0.05780  0.32670  Biso   1.000  C
  C15      1.0000 0.45730  0.01370  0.58730  Biso   1.000  C
  H9       1.0000 0.48160  0.97650  0.63540  Biso   1.000  H
  H10      1.0000 0.44850  0.99940  0.49070  Biso   1.000  H
  N6       1.0000 0.20860  0.93430  0.37120  Biso   1.000  N
  N7       1.0000 0.28580  0.00610  0.48450  Biso   1.000  N
  C16      1.0000 0.30810  0.07140  0.50540  Biso   1.000  C
  C17      1.0000 0.45500  0.13730  0.52640  Biso   1.000  C
  H11      1.0000 0.47870  0.18100  0.53130  Biso   1.000  H
  H12      1.0000 0.44480  0.12630  0.42850  Biso   1.000  H
  C18      1.0000 0.23460  0.87050  0.44150  Biso   1.000  C
  H13      1.0000 0.20080  0.84410  0.47920  Biso   1.000  H
  H14      1.0000 0.26380  0.88420  0.51900  Biso   1.000  H
  C19      1.0000 0.73940  0.12160  0.59140  Biso   1.000  C
  H15      1.0000 0.71950  0.16170  0.62250  Biso   1.000  H
  N8       1.0000 0.72180  0.93150  0.59300  Biso   1.000  N
  C20      1.0000 0.67470  0.92450  0.67740  Biso   1.000  C
  H16      1.0000 0.66230  0.87880  0.69760  Biso   1.000  H
  C21      1.0000 0.59430  0.96000  0.83170  Biso   1.000  C
  O5       1.0000 0.59420  0.89920  0.88140  Biso   1.000  O
  N9       1.0000 0.86780  0.07740  0.40880  Biso   1.000  N
  O6       1.0000 0.44380  0.36160  0.47690  Biso   1.000  O
  C22      1.0000 0.38690  0.26840  0.28360  Biso   1.000  C
  H17      1.0000 0.36120  0.29320  0.34040  Biso   1.000  H
  C23      1.0000 0.50400  0.16210  0.00860  Biso   1.000  C
  O7       1.0000 0.53740  0.33110  0.43210  Biso   1.000  O
  C24      1.0000 0.46380  0.19650  0.11000  Biso   1.000  C
  C25      1.0000 0.40040  0.18630  0.10020  Biso   1.000  C
  H18      1.0000 0.38260  0.15530  0.03310  Biso   1.000  H
  C26      1.0000 0.36220  0.22080  0.18730  Biso   1.000  C
  H19      1.0000 0.31930  0.21160  0.18070  Biso   1.000  H
  C27      1.0000 0.48020  0.32690  0.40820  Biso   1.000  C
  C28      1.0000 0.14990  0.05180  0.23130  Biso   1.000  C
  C29      1.0000 0.94670  0.15440  0.31180  Biso   1.000  C
  H20      1.0000 0.97460  0.19370  0.33530  Biso   1.000  H
  H21      1.0000 0.91940  0.16780  0.23060  Biso   1.000  H
  C30      1.0000 0.90260  0.01470  0.37100  Biso   1.000  C
  H22      1.0000 0.87340  0.97680  0.34550  Biso   1.000  H
  H23      1.0000 0.92980  0.99930  0.45080  Biso   1.000  H
  C31      1.0000 0.90760  0.14010  0.43230  Biso   1.000  C
  H24      1.0000 0.93500  0.13340  0.51670  Biso   1.000  H
  H25      1.0000 0.88120  0.18080  0.44660  Biso   1.000  H
  C32      1.0000 0.94140  0.03050  0.25010  Biso   1.000  C
  H26      1.0000 0.96570  0.98880  0.23040  Biso   1.000  H
  H27      1.0000 0.91360  0.04040  0.16790  Biso   1.000  H
  C33      1.0000 0.26730  0.82420  0.34490  Biso   1.000  C
  H28      1.0000 0.23980  0.81420  0.26350  Biso   1.000  H
  H29      1.0000 0.27920  0.78090  0.39150  Biso   1.000  H
  H30      1.0000 0.30420  0.84780  0.31730  Biso   1.000  H
  N10      1.0000 0.98500  0.09100  0.27570  Biso   1.000  N
  H31      1.0000 0.01210  0.08060  0.35070  Biso   1.000  H
  O8       1.0000 0.12440  0.10740  0.18120  Biso   1.000  O
  O9       1.0000 0.07680  0.89840  0.05000  Biso   1.000  O
  C34      1.0000 0.08030  0.96020  0.08640  Biso   1.000  C
  O10      1.0000 0.04540  0.00850  0.03170  Biso   1.000  O
  C35      1.0000 0.74300  0.86600  0.50950  Biso   1.000  C
  H32      1.0000 0.73260  0.85320  0.41700  Biso   1.000  H
  C36      1.0000 0.78130  0.83240  0.61130  Biso   1.000  C
  Zn3      1.0000 0.03555  0.10456  0.10423  Biso   1.000  Zn
  Zn4      1.0000 0.04305  0.39635  0.28341  Biso   1.000  Zn
  O11      1.0000 0.13390  0.39720  0.24200  Biso   1.000  O
  C37      1.0000 0.73370  0.49930  0.89690  Biso   1.000  C
  C38      1.0000 0.14380  0.52170  0.23560  Biso   1.000  C
  O12      1.0000 0.05480  0.49460  0.35930  Biso   1.000  O
  C39      1.0000 0.24490  0.50120  0.07080  Biso   1.000  C
  N11      1.0000 0.78290  0.36810  0.94660  Biso   1.000  N
  C40      1.0000 0.73120  0.37630  0.86340  Biso   1.000  C
  H33      1.0000 0.71110  0.33600  0.82720  Biso   1.000  H
  O13      1.0000 0.97620  0.36600  0.40190  Biso   1.000  O
  C41      1.0000 0.89690  0.47680  0.15420  Biso   1.000  C
  H34      1.0000 0.87270  0.52000  0.14520  Biso   1.000  H
  H35      1.0000 0.90570  0.46700  0.25310  Biso   1.000  H
  C42      1.0000 0.21490  0.44460  0.12370  Biso   1.000  C
  N12      1.0000 0.86080  0.41920  0.08930  Biso   1.000  N
  N13      1.0000 0.28830  0.37000  0.02020  Biso   1.000  N
  C43      1.0000 0.95200  0.22110  0.79460  Biso   1.000  C
  C44      1.0000 0.63120  0.51960  0.70110  Biso   1.000  C
  N14      1.0000 0.29520  0.49600  0.99720  Biso   1.000  N
  C45      1.0000 0.16100  0.45190  0.20430  Biso   1.000  C
  C46      1.0000 0.98980  0.25590  0.70770  Biso   1.000  C
  H36      1.0000 0.03270  0.24750  0.71440  Biso   1.000  H
  C47      1.0000 0.89650  0.35310  0.09640  Biso   1.000  C
  H37      1.0000 0.90630  0.33990  0.19330  Biso   1.000  H
  H38      1.0000 0.87170  0.31570  0.05080  Biso   1.000  H
  O14      1.0000 0.06190  0.33700  0.52910  Biso   1.000  O
  C48      1.0000 0.31580  0.43010  0.97880  Biso   1.000  C
  C49      1.0000 0.65990  0.57290  0.77310  Biso   1.000  C
  H39      1.0000 0.64510  0.61840  0.75420  Biso   1.000  H
  N15      1.0000 0.99410  0.42040  0.09260  Biso   1.000  N
  H40      1.0000 0.02450  0.42790  0.03280  Biso   1.000  H
  C50      1.0000 0.70490  0.44220  0.82670  Biso   1.000  C
  C51      1.0000 0.95730  0.48630  0.08730  Biso   1.000  C
  H41      1.0000 0.98160  0.52350  0.13540  Biso   1.000  H
  H42      1.0000 0.94850  0.50060  0.99070  Biso   1.000  H
  N16      1.0000 0.70860  0.56570  0.87120  Biso   1.000  N
  N17      1.0000 0.78580  0.49390  0.98450  Biso   1.000  N
  C52      1.0000 0.80810  0.42860  0.00540  Biso   1.000  C
  C53      1.0000 0.95500  0.36270  0.02640  Biso   1.000  C
  H43      1.0000 0.97870  0.31900  0.03130  Biso   1.000  H
  H44      1.0000 0.94480  0.37370  0.92850  Biso   1.000  H
  C54      1.0000 0.73460  0.62950  0.94150  Biso   1.000  C
  H45      1.0000 0.70080  0.65590  0.97920  Biso   1.000  H
  H46      1.0000 0.76380  0.61580  0.01900  Biso   1.000  H
  C55      1.0000 0.23940  0.37840  0.09140  Biso   1.000  C
  H47      1.0000 0.21950  0.33830  0.12250  Biso   1.000  H
  N18      1.0000 0.22180  0.56850  0.09300  Biso   1.000  N
  C56      1.0000 0.17470  0.57550  0.17740  Biso   1.000  C
  H48      1.0000 0.16230  0.62120  0.19760  Biso   1.000  H
  C57      1.0000 0.09430  0.54000  0.33170  Biso   1.000  C
  O15      1.0000 0.09420  0.60080  0.38140  Biso   1.000  O
  N19      1.0000 0.36780  0.42260  0.90880  Biso   1.000  N
  O16      1.0000 0.94380  0.13840  0.97690  Biso   1.000  O
  C58      1.0000 0.88690  0.23160  0.78360  Biso   1.000  C
  H49      1.0000 0.86120  0.20680  0.84040  Biso   1.000  H
  C59      1.0000 0.00400  0.33790  0.50860  Biso   1.000  C
  O17      1.0000 0.03740  0.16890  0.93210  Biso   1.000  O
  C60      1.0000 0.96380  0.30350  0.61000  Biso   1.000  C
  C61      1.0000 0.90040  0.31370  0.60020  Biso   1.000  C
  H50      1.0000 0.88260  0.34470  0.53310  Biso   1.000  H
  C62      1.0000 0.86220  0.27920  0.68730  Biso   1.000  C
  H51      1.0000 0.81930  0.28840  0.68070  Biso   1.000  H
  C63      1.0000 0.98020  0.17310  0.90820  Biso   1.000  C
  C64      1.0000 0.64990  0.44820  0.73130  Biso   1.000  C
  C65      1.0000 0.44670  0.34560  0.81180  Biso   1.000  C
  H52      1.0000 0.47460  0.30630  0.83530  Biso   1.000  H
  H53      1.0000 0.41940  0.33220  0.73060  Biso   1.000  H
  C66      1.0000 0.40260  0.48530  0.87100  Biso   1.000  C
  H54      1.0000 0.37340  0.52320  0.84550  Biso   1.000  H
  H55      1.0000 0.42980  0.50070  0.95080  Biso   1.000  H
  C67      1.0000 0.40760  0.35990  0.93230  Biso   1.000  C
  H56      1.0000 0.43500  0.36660  0.01670  Biso   1.000  H
  H57      1.0000 0.38120  0.31920  0.94660  Biso   1.000  H
  C68      1.0000 0.44140  0.46950  0.75010  Biso   1.000  C
  H58      1.0000 0.46570  0.51120  0.73040  Biso   1.000  H
  H59      1.0000 0.41360  0.45960  0.66790  Biso   1.000  H
  C69      1.0000 0.76730  0.67580  0.84490  Biso   1.000  C
  H60      1.0000 0.73980  0.68580  0.76350  Biso   1.000  H
  H61      1.0000 0.77920  0.71910  0.89150  Biso   1.000  H
  H62      1.0000 0.80420  0.65220  0.81730  Biso   1.000  H
  N20      1.0000 0.48500  0.40900  0.77570  Biso   1.000  N
  H63      1.0000 0.51210  0.41940  0.85070  Biso   1.000  H
  O18      1.0000 0.62440  0.39260  0.68120  Biso   1.000  O
  O19      1.0000 0.57680  0.60160  0.55000  Biso   1.000  O
  C70      1.0000 0.58030  0.53980  0.58640  Biso   1.000  C
  O20      1.0000 0.54540  0.49150  0.53170  Biso   1.000  O
  C71      1.0000 0.24300  0.63400  0.00950  Biso   1.000  C
  H64      1.0000 0.23260  0.64680  0.91700  Biso   1.000  H
  C72      1.0000 0.28130  0.66760  0.11130  Biso   1.000  C
  Zn5      1.0000 0.03555  0.89544  0.60423  Biso   1.000  Zn
  Zn6      1.0000 0.04305  0.60365  0.78341  Biso   1.000  Zn
  O21      1.0000 0.13390  0.60280  0.74200  Biso   1.000  O
  C73      1.0000 0.73370  0.50070  0.39690  Biso   1.000  C
  C74      1.0000 0.14380  0.47830  0.73560  Biso   1.000  C
  O22      1.0000 0.05480  0.50540  0.85930  Biso   1.000  O
  C75      1.0000 0.24490  0.49880  0.57080  Biso   1.000  C
  N21      1.0000 0.78290  0.63190  0.44660  Biso   1.000  N
  C76      1.0000 0.73120  0.62370  0.36340  Biso   1.000  C
  H65      1.0000 0.71110  0.66400  0.32720  Biso   1.000  H
  O23      1.0000 0.97620  0.63400  0.90190  Biso   1.000  O
  C77      1.0000 0.89690  0.52320  0.65420  Biso   1.000  C
  H66      1.0000 0.87270  0.48000  0.64520  Biso   1.000  H
  H67      1.0000 0.90570  0.53300  0.75310  Biso   1.000  H
  C78      1.0000 0.21490  0.55540  0.62370  Biso   1.000  C
  N22      1.0000 0.86080  0.58080  0.58930  Biso   1.000  N
  N23      1.0000 0.28830  0.63000  0.52020  Biso   1.000  N
  C79      1.0000 0.95200  0.77890  0.29460  Biso   1.000  C
  C80      1.0000 0.63120  0.48040  0.20110  Biso   1.000  C
  N24      1.0000 0.29520  0.50400  0.49720  Biso   1.000  N
  C81      1.0000 0.16100  0.54810  0.70430  Biso   1.000  C
  C82      1.0000 0.98980  0.74410  0.20770  Biso   1.000  C
  H68      1.0000 0.03270  0.75250  0.21440  Biso   1.000  H
  C83      1.0000 0.89650  0.64690  0.59640  Biso   1.000  C
  H69      1.0000 0.90630  0.66010  0.69330  Biso   1.000  H
  H70      1.0000 0.87170  0.68430  0.55080  Biso   1.000  H
  O24      1.0000 0.06190  0.66300  0.02910  Biso   1.000  O
  C84      1.0000 0.31580  0.56990  0.47880  Biso   1.000  C
  C85      1.0000 0.65990  0.42710  0.27310  Biso   1.000  C
  H71      1.0000 0.64510  0.38160  0.25420  Biso   1.000  H
  N25      1.0000 0.99410  0.57960  0.59260  Biso   1.000  N
  H72      1.0000 0.02450  0.57210  0.53280  Biso   1.000  H
  C86      1.0000 0.70490  0.55780  0.32670  Biso   1.000  C
  C87      1.0000 0.95730  0.51370  0.58730  Biso   1.000  C
  H73      1.0000 0.98160  0.47650  0.63540  Biso   1.000  H
  H74      1.0000 0.94850  0.49940  0.49070  Biso   1.000  H
  N26      1.0000 0.70860  0.43430  0.37120  Biso   1.000  N
  N27      1.0000 0.78580  0.50610  0.48450  Biso   1.000  N
  C88      1.0000 0.80810  0.57140  0.50540  Biso   1.000  C
  C89      1.0000 0.95500  0.63730  0.52640  Biso   1.000  C
  H75      1.0000 0.97870  0.68100  0.53130  Biso   1.000  H
  H76      1.0000 0.94480  0.62630  0.42850  Biso   1.000  H
  C90      1.0000 0.73460  0.37050  0.44150  Biso   1.000  C
  H77      1.0000 0.70080  0.34410  0.47920  Biso   1.000  H
  H78      1.0000 0.76380  0.38420  0.51900  Biso   1.000  H
  C91      1.0000 0.23940  0.62160  0.59140  Biso   1.000  C
  H79      1.0000 0.21950  0.66170  0.62250  Biso   1.000  H
  N28      1.0000 0.22180  0.43150  0.59300  Biso   1.000  N
  C92      1.0000 0.17470  0.42450  0.67740  Biso   1.000  C
  H80      1.0000 0.16230  0.37880  0.69760  Biso   1.000  H
  C93      1.0000 0.09430  0.46000  0.83170  Biso   1.000  C
  O25      1.0000 0.09420  0.39920  0.88140  Biso   1.000  O
  N29      1.0000 0.36780  0.57740  0.40880  Biso   1.000  N
  O26      1.0000 0.94380  0.86160  0.47690  Biso   1.000  O
  C94      1.0000 0.88690  0.76840  0.28360  Biso   1.000  C
  H81      1.0000 0.86120  0.79320  0.34040  Biso   1.000  H
  C95      1.0000 0.00400  0.66210  0.00860  Biso   1.000  C
  O27      1.0000 0.03740  0.83110  0.43210  Biso   1.000  O
  C96      1.0000 0.96380  0.69650  0.11000  Biso   1.000  C
  C97      1.0000 0.90040  0.68630  0.10020  Biso   1.000  C
  H82      1.0000 0.88260  0.65530  0.03310  Biso   1.000  H
  C98      1.0000 0.86220  0.72080  0.18730  Biso   1.000  C
  H83      1.0000 0.81930  0.71160  0.18070  Biso   1.000  H
  C99      1.0000 0.98020  0.82690  0.40820  Biso   1.000  C
  C100     1.0000 0.64990  0.55180  0.23130  Biso   1.000  C
  C101     1.0000 0.44670  0.65440  0.31180  Biso   1.000  C
  H84      1.0000 0.47460  0.69370  0.33530  Biso   1.000  H
  H85      1.0000 0.41940  0.66780  0.23060  Biso   1.000  H
  C102     1.0000 0.40260  0.51470  0.37100  Biso   1.000  C
  H86      1.0000 0.37340  0.47680  0.34550  Biso   1.000  H
  H87      1.0000 0.42980  0.49930  0.45080  Biso   1.000  H
  C103     1.0000 0.40760  0.64010  0.43230  Biso   1.000  C
  H88      1.0000 0.43500  0.63340  0.51670  Biso   1.000  H
  H89      1.0000 0.38120  0.68080  0.44660  Biso   1.000  H
  C104     1.0000 0.44140  0.53050  0.25010  Biso   1.000  C
  H90      1.0000 0.46570  0.48880  0.23040  Biso   1.000  H
  H91      1.0000 0.41360  0.54040  0.16790  Biso   1.000  H
  C105     1.0000 0.76730  0.32420  0.34490  Biso   1.000  C
  H92      1.0000 0.73980  0.31420  0.26350  Biso   1.000  H
  H93      1.0000 0.77920  0.28090  0.39150  Biso   1.000  H
  H94      1.0000 0.80420  0.34780  0.31730  Biso   1.000  H
  N30      1.0000 0.48500  0.59100  0.27570  Biso   1.000  N
  H95      1.0000 0.51210  0.58060  0.35070  Biso   1.000  H
  O28      1.0000 0.62440  0.60740  0.18120  Biso   1.000  O
  O29      1.0000 0.57680  0.39840  0.05000  Biso   1.000  O
  C106     1.0000 0.58030  0.46020  0.08640  Biso   1.000  C
  O30      1.0000 0.54540  0.50850  0.03170  Biso   1.000  O
  C107     1.0000 0.24300  0.36600  0.50950  Biso   1.000  C
  H96      1.0000 0.23260  0.35320  0.41700  Biso   1.000  H
  C108     1.0000 0.28130  0.33240  0.61130  Biso   1.000  C
  Zn7      1.0000 0.53555  0.60456  0.10423  Biso   1.000  Zn
  Zn8      1.0000 0.54305  0.89635  0.28341  Biso   1.000  Zn
  O31      1.0000 0.63390  0.89720  0.24200  Biso   1.000  O
  C109     1.0000 0.23370  0.99930  0.89690  Biso   1.000  C
  C110     1.0000 0.64380  0.02170  0.23560  Biso   1.000  C
  O32      1.0000 0.55480  0.99460  0.35930  Biso   1.000  O
  C111     1.0000 0.74490  0.00120  0.07080  Biso   1.000  C
  N31      1.0000 0.28290  0.86810  0.94660  Biso   1.000  N
  C112     1.0000 0.23120  0.87630  0.86340  Biso   1.000  C
  H97      1.0000 0.21110  0.83600  0.82720  Biso   1.000  H
  O33      1.0000 0.47620  0.86600  0.40190  Biso   1.000  O
  C113     1.0000 0.39690  0.97680  0.15420  Biso   1.000  C
  H98      1.0000 0.37270  0.02000  0.14520  Biso   1.000  H
  H99      1.0000 0.40570  0.96700  0.25310  Biso   1.000  H
  C114     1.0000 0.71490  0.94460  0.12370  Biso   1.000  C
  N32      1.0000 0.36080  0.91920  0.08930  Biso   1.000  N
  N33      1.0000 0.78830  0.87000  0.02020  Biso   1.000  N
  C115     1.0000 0.45200  0.72110  0.79460  Biso   1.000  C
  C116     1.0000 0.13120  0.01960  0.70110  Biso   1.000  C
  N34      1.0000 0.79520  0.99600  0.99720  Biso   1.000  N
  C117     1.0000 0.66100  0.95190  0.20430  Biso   1.000  C
  C118     1.0000 0.48980  0.75590  0.70770  Biso   1.000  C
  H100     1.0000 0.53270  0.74750  0.71440  Biso   1.000  H
  C119     1.0000 0.39650  0.85310  0.09640  Biso   1.000  C
  H101     1.0000 0.40630  0.83990  0.19330  Biso   1.000  H
  H102     1.0000 0.37170  0.81570  0.05080  Biso   1.000  H
  O34      1.0000 0.56190  0.83700  0.52910  Biso   1.000  O
  C120     1.0000 0.81580  0.93010  0.97880  Biso   1.000  C
  C121     1.0000 0.15990  0.07290  0.77310  Biso   1.000  C
  H103     1.0000 0.14510  0.11840  0.75420  Biso   1.000  H
  N35      1.0000 0.49410  0.92040  0.09260  Biso   1.000  N
  H104     1.0000 0.52450  0.92790  0.03280  Biso   1.000  H
  C122     1.0000 0.20490  0.94220  0.82670  Biso   1.000  C
  C123     1.0000 0.45730  0.98630  0.08730  Biso   1.000  C
  H105     1.0000 0.48160  0.02350  0.13540  Biso   1.000  H
  H106     1.0000 0.44850  0.00060  0.99070  Biso   1.000  H
  N36      1.0000 0.20860  0.06570  0.87120  Biso   1.000  N
  N37      1.0000 0.28580  0.99390  0.98450  Biso   1.000  N
  C124     1.0000 0.30810  0.92860  0.00540  Biso   1.000  C
  C125     1.0000 0.45500  0.86270  0.02640  Biso   1.000  C
  H107     1.0000 0.47870  0.81900  0.03130  Biso   1.000  H
  H108     1.0000 0.44480  0.87370  0.92850  Biso   1.000  H
  C126     1.0000 0.23460  0.12950  0.94150  Biso   1.000  C
  H109     1.0000 0.20080  0.15590  0.97920  Biso   1.000  H
  H110     1.0000 0.26380  0.11580  0.01900  Biso   1.000  H
  C127     1.0000 0.73940  0.87840  0.09140  Biso   1.000  C
  H111     1.0000 0.71950  0.83830  0.12250  Biso   1.000  H
  N38      1.0000 0.72180  0.06850  0.09300  Biso   1.000  N
  C128     1.0000 0.67470  0.07550  0.17740  Biso   1.000  C
  H112     1.0000 0.66230  0.12120  0.19760  Biso   1.000  H
  C129     1.0000 0.59430  0.04000  0.33170  Biso   1.000  C
  O35      1.0000 0.59420  0.10080  0.38140  Biso   1.000  O
  N39      1.0000 0.86780  0.92260  0.90880  Biso   1.000  N
  O36      1.0000 0.44380  0.63840  0.97690  Biso   1.000  O
  C130     1.0000 0.38690  0.73160  0.78360  Biso   1.000  C
  H113     1.0000 0.36120  0.70680  0.84040  Biso   1.000  H
  C131     1.0000 0.50400  0.83790  0.50860  Biso   1.000  C
  O37      1.0000 0.53740  0.66890  0.93210  Biso   1.000  O
  C132     1.0000 0.46380  0.80350  0.61000  Biso   1.000  C
  C133     1.0000 0.40040  0.81370  0.60020  Biso   1.000  C
  H114     1.0000 0.38260  0.84470  0.53310  Biso   1.000  H
  C134     1.0000 0.36220  0.77920  0.68730  Biso   1.000  C
  H115     1.0000 0.31930  0.78840  0.68070  Biso   1.000  H
  C135     1.0000 0.48020  0.67310  0.90820  Biso   1.000  C
  C136     1.0000 0.14990  0.94820  0.73130  Biso   1.000  C
  C137     1.0000 0.94670  0.84560  0.81180  Biso   1.000  C
  H116     1.0000 0.97460  0.80630  0.83530  Biso   1.000  H
  H117     1.0000 0.91940  0.83220  0.73060  Biso   1.000  H
  C138     1.0000 0.90260  0.98530  0.87100  Biso   1.000  C
  H118     1.0000 0.87340  0.02320  0.84550  Biso   1.000  H
  H119     1.0000 0.92980  0.00070  0.95080  Biso   1.000  H
  C139     1.0000 0.90760  0.85990  0.93230  Biso   1.000  C
  H120     1.0000 0.93500  0.86660  0.01670  Biso   1.000  H
  H121     1.0000 0.88120  0.81920  0.94660  Biso   1.000  H
  C140     1.0000 0.94140  0.96950  0.75010  Biso   1.000  C
  H122     1.0000 0.96570  0.01120  0.73040  Biso   1.000  H
  H123     1.0000 0.91360  0.95960  0.66790  Biso   1.000  H
  C141     1.0000 0.26730  0.17580  0.84490  Biso   1.000  C
  H124     1.0000 0.23980  0.18580  0.76350  Biso   1.000  H
  H125     1.0000 0.27920  0.21910  0.89150  Biso   1.000  H
  H126     1.0000 0.30420  0.15220  0.81730  Biso   1.000  H
  N40      1.0000 0.98500  0.90900  0.77570  Biso   1.000  N
  H127     1.0000 0.01210  0.91940  0.85070  Biso   1.000  H
  O38      1.0000 0.12440  0.89260  0.68120  Biso   1.000  O
  O39      1.0000 0.07680  0.10160  0.55000  Biso   1.000  O
  C142     1.0000 0.08030  0.03980  0.58640  Biso   1.000  C
  O40      1.0000 0.04540  0.99150  0.53170  Biso   1.000  O
  C143     1.0000 0.74300  0.13400  0.00950  Biso   1.000  C
  H128     1.0000 0.73260  0.14680  0.91700  Biso   1.000  H
  C144     1.0000 0.78130  0.16760  0.11130  Biso   1.000  C
