data_image0
_cell_length_a       13.982
_cell_length_b       8.1795
_cell_length_c       24.0881
_cell_angle_alpha    90
_cell_angle_beta     104.419
_cell_angle_gamma    90

_symmetry_space_group_name_H-M    "P 1"
_symmetry_int_tables_number       1

loop_
  _symmetry_equiv_pos_as_xyz
  'x, y, z'

loop_
  _atom_site_label
  _atom_site_occupancy
  _atom_site_fract_x
  _atom_site_fract_y
  _atom_site_fract_z
  _atom_site_thermal_displace_type
  _atom_site_B_iso_or_equiv
  _atom_site_type_symbol
  Re1      1.0000 0.47064  0.90321  0.35761  Biso   1.000  Re
  O1       1.0000 0.44191  0.11290  0.45705  Biso   1.000  O
  C1       1.0000 0.39400  0.06870  0.31072  Biso   1.000  C
  C2       1.0000 0.57098  0.45030  0.44426  Biso   1.000  C
  H1       1.0000 0.54190  0.35310  0.45170  Biso   1.000  H
  C3       1.0000 0.51246  0.57690  0.41580  Biso   1.000  C
  N1       1.0000 0.55585  0.72212  0.40469  Biso   1.000  N
  C4       1.0000 0.65777  0.74079  0.42203  Biso   1.000  C
  C5       1.0000 0.71630  0.61420  0.45049  Biso   1.000  C
  H2       1.0000 0.78450  0.62670  0.46210  Biso   1.000  H
  C6       1.0000 0.67290  0.46900  0.46160  Biso   1.000  C
  C7       1.0000 0.26395  0.73220  0.34345  Biso   1.000  C
  H3       1.0000 0.23690  0.82440  0.32290  Biso   1.000  H
  N2       1.0000 0.36565  0.71940  0.36463  Biso   1.000  N
  C8       1.0000 0.40611  0.58150  0.39540  Biso   1.000  C
  C9       1.0000 0.34486  0.45650  0.40499  Biso   1.000  C
  H4       1.0000 0.37190  0.36420  0.42560  Biso   1.000  H
  C10      1.0000 0.24315  0.46920  0.38381  Biso   1.000  C
  H5       1.0000 0.20220  0.38550  0.39020  Biso   1.000  H
  C11      1.0000 0.20270  0.60710  0.35304  Biso   1.000  C
  H6       1.0000 0.13470  0.61560  0.33890  Biso   1.000  H
  C12      1.0000 0.40120  0.72300  0.23977  Biso   1.000  C
  H7       1.0000 0.34500  0.77700  0.24270  Biso   1.000  H
  N3       1.0000 0.48330  0.75320  0.28188  Biso   1.000  N
  C13      1.0000 0.56680  0.67600  0.27835  Biso   1.000  C
  H8       1.0000 0.62700  0.69800  0.30810  Biso   1.000  H
  C14      1.0000 0.57030  0.56450  0.23574  Biso   1.000  C
  H9       1.0000 0.62600  0.51500  0.23610  Biso   1.000  H
  C15      1.0000 0.48540  0.53150  0.19406  Biso   1.000  C
  H10      1.0000 0.48570  0.45530  0.16550  Biso   1.000  H
  C16      1.0000 0.39950  0.61450  0.19560  Biso   1.000  C
  H11      1.0000 0.33800  0.60100  0.16600  Biso   1.000  H
  C17      1.0000 0.69057  0.88820  0.40002  Biso   1.000  C
  N4       1.0000 0.61787  0.98600  0.36593  Biso   1.000  N
  C18      1.0000 0.64410  0.12600  0.34051  Biso   1.000  C
  H12      1.0000 0.59550  0.19140  0.31770  Biso   1.000  H
  C19      1.0000 0.74303  0.16820  0.34919  Biso   1.000  C
  H13      1.0000 0.76060  0.26180  0.33220  Biso   1.000  H
  C20      1.0000 0.81573  0.07040  0.38328  Biso   1.000  C
  H14      1.0000 0.88190  0.09860  0.38910  Biso   1.000  H
  C21      1.0000 0.78951  0.93040  0.40870  Biso   1.000  C
  H15      1.0000 0.83820  0.86490  0.43150  Biso   1.000  H
  C22      1.0000 0.69692  0.19240  0.51036  Biso   1.000  C
  H16      1.0000 0.62910  0.18760  0.50630  Biso   1.000  H
  C23      1.0000 0.75690  0.06430  0.53643  Biso   1.000  C
  H17      1.0000 0.72920  0.97390  0.54990  Biso   1.000  H
  N5       1.0000 0.85829  0.07160  0.54244  Biso   1.000  N
  C24      1.0000 0.89971  0.20680  0.52237  Biso   1.000  C
  H18      1.0000 0.96750  0.21160  0.52640  Biso   1.000  H
  C25      1.0000 0.83973  0.33480  0.49629  Biso   1.000  C
  H19      1.0000 0.86740  0.42530  0.48290  Biso   1.000  H
  C26      1.0000 0.73834  0.32760  0.49029  Biso   1.000  C
  C27      1.0000 0.45380  0.02910  0.41992  Biso   1.000  C
  O2       1.0000 0.34770  0.17230  0.28403  Biso   1.000  O
  Re2      1.0000 0.02936  0.40321  0.14239  Biso   1.000  Re
  O3       1.0000 0.05809  0.61290  0.04295  Biso   1.000  O
  C28      1.0000 0.10600  0.56870  0.18928  Biso   1.000  C
  C29      1.0000 0.92902  0.95030  0.05574  Biso   1.000  C
  H20      1.0000 0.95810  0.85310  0.04830  Biso   1.000  H
  C30      1.0000 0.98754  0.07690  0.08420  Biso   1.000  C
  N6       1.0000 0.94415  0.22212  0.09531  Biso   1.000  N
  C31      1.0000 0.84223  0.24079  0.07797  Biso   1.000  C
  C32      1.0000 0.78370  0.11420  0.04951  Biso   1.000  C
  H21      1.0000 0.71550  0.12670  0.03790  Biso   1.000  H
  C33      1.0000 0.82710  0.96900  0.03840  Biso   1.000  C
  C34      1.0000 0.23605  0.23220  0.15655  Biso   1.000  C
  H22      1.0000 0.26310  0.32440  0.17710  Biso   1.000  H
  N7       1.0000 0.13435  0.21940  0.13537  Biso   1.000  N
  C35      1.0000 0.09389  0.08150  0.10460  Biso   1.000  C
  C36      1.0000 0.15514  0.95650  0.09501  Biso   1.000  C
  H23      1.0000 0.12810  0.86420  0.07440  Biso   1.000  H
  C37      1.0000 0.25685  0.96920  0.11619  Biso   1.000  C
  H24      1.0000 0.29780  0.88550  0.10980  Biso   1.000  H
  C38      1.0000 0.29730  0.10710  0.14696  Biso   1.000  C
  H25      1.0000 0.36530  0.11560  0.16110  Biso   1.000  H
  C39      1.0000 0.09880  0.22300  0.26023  Biso   1.000  C
  H26      1.0000 0.15500  0.27700  0.25730  Biso   1.000  H
  N8       1.0000 0.01670  0.25320  0.21812  Biso   1.000  N
  C40      1.0000 0.93320  0.17600  0.22165  Biso   1.000  C
  H27      1.0000 0.87300  0.19800  0.19190  Biso   1.000  H
  C41      1.0000 0.92970  0.06450  0.26426  Biso   1.000  C
  H28      1.0000 0.87400  0.01500  0.26390  Biso   1.000  H
  C42      1.0000 0.01460  0.03150  0.30594  Biso   1.000  C
  H29      1.0000 0.01430  0.95530  0.33450  Biso   1.000  H
  C43      1.0000 0.10050  0.11450  0.30440  Biso   1.000  C
  H30      1.0000 0.16200  0.10100  0.33400  Biso   1.000  H
  C44      1.0000 0.80943  0.38820  0.09998  Biso   1.000  C
  N9       1.0000 0.88213  0.48600  0.13407  Biso   1.000  N
  C45      1.0000 0.85590  0.62600  0.15949  Biso   1.000  C
  H31      1.0000 0.90450  0.69140  0.18230  Biso   1.000  H
  C46      1.0000 0.75697  0.66820  0.15081  Biso   1.000  C
  H32      1.0000 0.73940  0.76180  0.16780  Biso   1.000  H
  C47      1.0000 0.68427  0.57040  0.11672  Biso   1.000  C
  H33      1.0000 0.61810  0.59860  0.11090  Biso   1.000  H
  C48      1.0000 0.71049  0.43040  0.09130  Biso   1.000  C
  H34      1.0000 0.66180  0.36490  0.06850  Biso   1.000  H
  C49      1.0000 0.80308  0.69240  0.98964  Biso   1.000  C
  H35      1.0000 0.87090  0.68760  0.99370  Biso   1.000  H
  C50      1.0000 0.74310  0.56430  0.96357  Biso   1.000  C
  H36      1.0000 0.77080  0.47390  0.95010  Biso   1.000  H
  N10      1.0000 0.64171  0.57160  0.95756  Biso   1.000  N
  C51      1.0000 0.60029  0.70680  0.97763  Biso   1.000  C
  H37      1.0000 0.53250  0.71160  0.97360  Biso   1.000  H
  C52      1.0000 0.66027  0.83480  0.00371  Biso   1.000  C
  H38      1.0000 0.63260  0.92530  0.01710  Biso   1.000  H
  C53      1.0000 0.76166  0.82760  0.00971  Biso   1.000  C
  C54      1.0000 0.04620  0.52910  0.08008  Biso   1.000  C
  O4       1.0000 0.15230  0.67230  0.21597  Biso   1.000  O
  Re3      1.0000 0.52936  0.09679  0.64239  Biso   1.000  Re
  O5       1.0000 0.55809  0.88710  0.54295  Biso   1.000  O
  C55      1.0000 0.60600  0.93130  0.68928  Biso   1.000  C
  C56      1.0000 0.42902  0.54970  0.55574  Biso   1.000  C
  H39      1.0000 0.45810  0.64690  0.54830  Biso   1.000  H
  C57      1.0000 0.48754  0.42310  0.58420  Biso   1.000  C
  N11      1.0000 0.44415  0.27788  0.59531  Biso   1.000  N
  C58      1.0000 0.34223  0.25921  0.57797  Biso   1.000  C
  C59      1.0000 0.28370  0.38580  0.54951  Biso   1.000  C
  H40      1.0000 0.21550  0.37330  0.53790  Biso   1.000  H
  C60      1.0000 0.32710  0.53100  0.53840  Biso   1.000  C
  C61      1.0000 0.73605  0.26780  0.65655  Biso   1.000  C
  H41      1.0000 0.76310  0.17560  0.67710  Biso   1.000  H
  N12      1.0000 0.63435  0.28060  0.63537  Biso   1.000  N
  C62      1.0000 0.59389  0.41850  0.60460  Biso   1.000  C
  C63      1.0000 0.65514  0.54350  0.59501  Biso   1.000  C
  H42      1.0000 0.62810  0.63580  0.57440  Biso   1.000  H
  C64      1.0000 0.75685  0.53080  0.61619  Biso   1.000  C
  H43      1.0000 0.79780  0.61450  0.60980  Biso   1.000  H
  C65      1.0000 0.79730  0.39290  0.64696  Biso   1.000  C
  H44      1.0000 0.86530  0.38440  0.66110  Biso   1.000  H
  C66      1.0000 0.59880  0.27700  0.76023  Biso   1.000  C
  H45      1.0000 0.65500  0.22300  0.75730  Biso   1.000  H
  N13      1.0000 0.51670  0.24680  0.71812  Biso   1.000  N
  C67      1.0000 0.43320  0.32400  0.72165  Biso   1.000  C
  H46      1.0000 0.37300  0.30200  0.69190  Biso   1.000  H
  C68      1.0000 0.42970  0.43550  0.76426  Biso   1.000  C
  H47      1.0000 0.37400  0.48500  0.76390  Biso   1.000  H
  C69      1.0000 0.51460  0.46850  0.80594  Biso   1.000  C
  H48      1.0000 0.51430  0.54470  0.83450  Biso   1.000  H
  C70      1.0000 0.60050  0.38550  0.80440  Biso   1.000  C
  H49      1.0000 0.66200  0.39900  0.83400  Biso   1.000  H
  C71      1.0000 0.30943  0.11180  0.59998  Biso   1.000  C
  N14      1.0000 0.38213  0.01400  0.63407  Biso   1.000  N
  C72      1.0000 0.35590  0.87400  0.65949  Biso   1.000  C
  H50      1.0000 0.40450  0.80860  0.68230  Biso   1.000  H
  C73      1.0000 0.25697  0.83180  0.65081  Biso   1.000  C
  H51      1.0000 0.23940  0.73820  0.66780  Biso   1.000  H
  C74      1.0000 0.18427  0.92960  0.61672  Biso   1.000  C
  H52      1.0000 0.11810  0.90140  0.61090  Biso   1.000  H
  C75      1.0000 0.21049  0.06960  0.59130  Biso   1.000  C
  H53      1.0000 0.16180  0.13510  0.56850  Biso   1.000  H
  C76      1.0000 0.30308  0.80760  0.48964  Biso   1.000  C
  H54      1.0000 0.37090  0.81240  0.49370  Biso   1.000  H
  C77      1.0000 0.24310  0.93570  0.46357  Biso   1.000  C
  H55      1.0000 0.27080  0.02610  0.45010  Biso   1.000  H
  N15      1.0000 0.14171  0.92840  0.45756  Biso   1.000  N
  C78      1.0000 0.10029  0.79320  0.47763  Biso   1.000  C
  H56      1.0000 0.03250  0.78840  0.47360  Biso   1.000  H
  C79      1.0000 0.16027  0.66520  0.50371  Biso   1.000  C
  H57      1.0000 0.13260  0.57470  0.51710  Biso   1.000  H
  C80      1.0000 0.26166  0.67240  0.50971  Biso   1.000  C
  C81      1.0000 0.54620  0.97090  0.58008  Biso   1.000  C
  O6       1.0000 0.65230  0.82770  0.71597  Biso   1.000  O
  Re4      1.0000 0.97064  0.59679  0.85761  Biso   1.000  Re
  O7       1.0000 0.94191  0.38710  0.95705  Biso   1.000  O
  C82      1.0000 0.89400  0.43130  0.81072  Biso   1.000  C
  C83      1.0000 0.07098  0.04970  0.94426  Biso   1.000  C
  H58      1.0000 0.04190  0.14690  0.95170  Biso   1.000  H
  C84      1.0000 0.01246  0.92310  0.91580  Biso   1.000  C
  N16      1.0000 0.05585  0.77788  0.90469  Biso   1.000  N
  C85      1.0000 0.15777  0.75921  0.92203  Biso   1.000  C
  C86      1.0000 0.21630  0.88580  0.95049  Biso   1.000  C
  H59      1.0000 0.28450  0.87330  0.96210  Biso   1.000  H
  C87      1.0000 0.17290  0.03100  0.96160  Biso   1.000  C
  C88      1.0000 0.76395  0.76780  0.84345  Biso   1.000  C
  H60      1.0000 0.73690  0.67560  0.82290  Biso   1.000  H
  N17      1.0000 0.86565  0.78060  0.86463  Biso   1.000  N
  C89      1.0000 0.90611  0.91850  0.89540  Biso   1.000  C
  C90      1.0000 0.84486  0.04350  0.90499  Biso   1.000  C
  H61      1.0000 0.87190  0.13580  0.92560  Biso   1.000  H
  C91      1.0000 0.74315  0.03080  0.88381  Biso   1.000  C
  H62      1.0000 0.70220  0.11450  0.89020  Biso   1.000  H
  C92      1.0000 0.70270  0.89290  0.85304  Biso   1.000  C
  H63      1.0000 0.63470  0.88440  0.83890  Biso   1.000  H
  C93      1.0000 0.90120  0.77700  0.73977  Biso   1.000  C
  H64      1.0000 0.84500  0.72300  0.74270  Biso   1.000  H
  N18      1.0000 0.98330  0.74680  0.78188  Biso   1.000  N
  C94      1.0000 0.06680  0.82400  0.77835  Biso   1.000  C
  H65      1.0000 0.12700  0.80200  0.80810  Biso   1.000  H
  C95      1.0000 0.07030  0.93550  0.73574  Biso   1.000  C
  H66      1.0000 0.12600  0.98500  0.73610  Biso   1.000  H
  C96      1.0000 0.98540  0.96850  0.69406  Biso   1.000  C
  H67      1.0000 0.98570  0.04470  0.66550  Biso   1.000  H
  C97      1.0000 0.89950  0.88550  0.69560  Biso   1.000  C
  H68      1.0000 0.83800  0.89900  0.66600  Biso   1.000  H
  C98      1.0000 0.19057  0.61180  0.90002  Biso   1.000  C
  N19      1.0000 0.11787  0.51400  0.86593  Biso   1.000  N
  C99      1.0000 0.14410  0.37400  0.84051  Biso   1.000  C
  H69      1.0000 0.09550  0.30860  0.81770  Biso   1.000  H
  C100     1.0000 0.24303  0.33180  0.84919  Biso   1.000  C
  H70      1.0000 0.26060  0.23820  0.83220  Biso   1.000  H
  C101     1.0000 0.31573  0.42960  0.88328  Biso   1.000  C
  H71      1.0000 0.38190  0.40140  0.88910  Biso   1.000  H
  C102     1.0000 0.28951  0.56960  0.90870  Biso   1.000  C
  H72      1.0000 0.33820  0.63510  0.93150  Biso   1.000  H
  C103     1.0000 0.19692  0.30760  0.01036  Biso   1.000  C
  H73      1.0000 0.12910  0.31240  0.00630  Biso   1.000  H
  C104     1.0000 0.25690  0.43570  0.03643  Biso   1.000  C
  H74      1.0000 0.22920  0.52610  0.04990  Biso   1.000  H
  N20      1.0000 0.35829  0.42840  0.04244  Biso   1.000  N
  C105     1.0000 0.39971  0.29320  0.02237  Biso   1.000  C
  H75      1.0000 0.46750  0.28840  0.02640  Biso   1.000  H
  C106     1.0000 0.33973  0.16520  0.99629  Biso   1.000  C
  H76      1.0000 0.36740  0.07470  0.98290  Biso   1.000  H
  C107     1.0000 0.23834  0.17240  0.99029  Biso   1.000  C
  C108     1.0000 0.95380  0.47090  0.91992  Biso   1.000  C
  O8       1.0000 0.84770  0.32770  0.78403  Biso   1.000  O
