data_image0
_cell_length_a       12.4693
_cell_length_b       13.2851
_cell_length_c       13.1755
_cell_angle_alpha    112.301
_cell_angle_beta     105.397
_cell_angle_gamma    97.7284

_symmetry_space_group_name_H-M    "P 1"
_symmetry_int_tables_number       1

loop_
  _symmetry_equiv_pos_as_xyz
  'x, y, z'

loop_
  _atom_site_label
  _atom_site_occupancy
  _atom_site_fract_x
  _atom_site_fract_y
  _atom_site_fract_z
  _atom_site_thermal_displace_type
  _atom_site_B_iso_or_equiv
  _atom_site_type_symbol
  Zn1      1.0000 0.21873  0.47953  0.49144  Biso   1.000  Zn
  O1       1.0000 0.13710  0.57000  0.42620  Biso   1.000  O
  O2       1.0000 0.29600  0.71010  0.50420  Biso   1.000  O
  O3       1.0000 0.25550  0.55060  0.66040  Biso   1.000  O
  O4       1.0000 0.30790  0.39060  0.63160  Biso   1.000  O
  N1       1.0000 0.08220  0.33680  0.40980  Biso   1.000  N
  N2       1.0000 0.11830  0.01700  0.40750  Biso   1.000  N
  H1       1.0000 0.18610  0.06620  0.43800  Biso   1.000  H
  N3       1.0000 0.93050  0.94700  0.32640  Biso   1.000  N
  N4       1.0000 0.33340  0.43700  0.40940  Biso   1.000  N
  N5       1.0000 0.38360  0.40240  0.04930  Biso   1.000  N
  H2       1.0000 0.39530  0.33460  0.02670  Biso   1.000  H
  N6       1.0000 0.36730  0.56890  0.16720  Biso   1.000  N
  C1       1.0000 0.97650  0.34120  0.35610  Biso   1.000  C
  H3       1.0000 0.96630  0.41090  0.35640  Biso   1.000  H
  C2       1.0000 0.88230  0.24910  0.30060  Biso   1.000  C
  H4       1.0000 0.80850  0.25570  0.26420  Biso   1.000  H
  C3       1.0000 0.89580  0.14690  0.29840  Biso   1.000  C
  H5       1.0000 0.83230  0.08170  0.25840  Biso   1.000  H
  C4       1.0000 0.00410  0.14120  0.35560  Biso   1.000  C
  C5       1.0000 0.09470  0.23630  0.40860  Biso   1.000  C
  H6       1.0000 0.16910  0.23170  0.44590  Biso   1.000  H
  C6       1.0000 0.01910  0.03520  0.36190  Biso   1.000  C
  C7       1.0000 0.09960  0.91020  0.40010  Biso   1.000  C
  C8       1.0000 0.17100  0.84790  0.43360  Biso   1.000  C
  H7       1.0000 0.25230  0.87800  0.46860  Biso   1.000  H
  C9       1.0000 0.11810  0.73940  0.41350  Biso   1.000  C
  C10      1.0000 0.99760  0.69590  0.36130  Biso   1.000  C
  H8       1.0000 0.96380  0.62120  0.34720  Biso   1.000  H
  C11      1.0000 0.92690  0.75890  0.33000  Biso   1.000  C
  H9       1.0000 0.84550  0.72940  0.29650  Biso   1.000  H
  C12      1.0000 0.97970  0.86720  0.34940  Biso   1.000  C
  C13      1.0000 0.19000  0.67030  0.45130  Biso   1.000  C
  C14      1.0000 0.39680  0.36500  0.42250  Biso   1.000  C
  H10      1.0000 0.39710  0.34090  0.48190  Biso   1.000  H
  C15      1.0000 0.46100  0.32540  0.35270  Biso   1.000  C
  H11      1.0000 0.50610  0.27620  0.36530  Biso   1.000  H
  C16      1.0000 0.45950  0.35770  0.26400  Biso   1.000  C
  H12      1.0000 0.50200  0.32970  0.21410  Biso   1.000  H
  C17      1.0000 0.39490  0.43160  0.24940  Biso   1.000  C
  C18      1.0000 0.33340  0.46930  0.32480  Biso   1.000  C
  H13      1.0000 0.28950  0.52040  0.31550  Biso   1.000  H
  C19      1.0000 0.38370  0.46950  0.15660  Biso   1.000  C
  C20      1.0000 0.36140  0.46100  0.98200  Biso   1.000  C
  C21      1.0000 0.34690  0.43220  0.86630  Biso   1.000  C
  H14      1.0000 0.35630  0.36250  0.81750  Biso   1.000  H
  C22      1.0000 0.31770  0.51070  0.82410  Biso   1.000  C
  C23      1.0000 0.31160  0.61710  0.90030  Biso   1.000  C
  H15      1.0000 0.29530  0.67030  0.87040  Biso   1.000  H
  C24      1.0000 0.32860  0.64560  0.01620  Biso   1.000  C
  H16      1.0000 0.32440  0.71740  0.06640  Biso   1.000  H
  C25      1.0000 0.35260  0.56540  0.05880  Biso   1.000  C
  C26      1.0000 0.29330  0.48130  0.69850  Biso   1.000  C
  Zn2      1.0000 0.78127  0.52047  0.50856  Biso   1.000  Zn
  O5       1.0000 0.86290  0.43000  0.57380  Biso   1.000  O
  O6       1.0000 0.70400  0.28990  0.49580  Biso   1.000  O
  O7       1.0000 0.74450  0.44940  0.33960  Biso   1.000  O
  O8       1.0000 0.69210  0.60940  0.36840  Biso   1.000  O
  N7       1.0000 0.91780  0.66320  0.59020  Biso   1.000  N
  N8       1.0000 0.88170  0.98300  0.59250  Biso   1.000  N
  H17      1.0000 0.81390  0.93380  0.56200  Biso   1.000  H
  N9       1.0000 0.06950  0.05300  0.67360  Biso   1.000  N
  N10      1.0000 0.66660  0.56300  0.59060  Biso   1.000  N
  N11      1.0000 0.61640  0.59760  0.95070  Biso   1.000  N
  H18      1.0000 0.60470  0.66540  0.97330  Biso   1.000  H
  N12      1.0000 0.63270  0.43110  0.83280  Biso   1.000  N
  C27      1.0000 0.02350  0.65880  0.64390  Biso   1.000  C
  H19      1.0000 0.03370  0.58910  0.64360  Biso   1.000  H
  C28      1.0000 0.11770  0.75090  0.69940  Biso   1.000  C
  H20      1.0000 0.19150  0.74430  0.73580  Biso   1.000  H
  C29      1.0000 0.10420  0.85310  0.70160  Biso   1.000  C
  H21      1.0000 0.16770  0.91830  0.74160  Biso   1.000  H
  C30      1.0000 0.99590  0.85880  0.64440  Biso   1.000  C
  C31      1.0000 0.90530  0.76370  0.59140  Biso   1.000  C
  H22      1.0000 0.83090  0.76830  0.55410  Biso   1.000  H
  C32      1.0000 0.98090  0.96480  0.63810  Biso   1.000  C
  C33      1.0000 0.90040  0.08980  0.59990  Biso   1.000  C
  C34      1.0000 0.82900  0.15210  0.56640  Biso   1.000  C
  H23      1.0000 0.74770  0.12200  0.53140  Biso   1.000  H
  C35      1.0000 0.88190  0.26060  0.58650  Biso   1.000  C
  C36      1.0000 0.00240  0.30410  0.63870  Biso   1.000  C
  H24      1.0000 0.03620  0.37880  0.65280  Biso   1.000  H
  C37      1.0000 0.07310  0.24110  0.67000  Biso   1.000  C
  H25      1.0000 0.15450  0.27060  0.70350  Biso   1.000  H
  C38      1.0000 0.02030  0.13280  0.65060  Biso   1.000  C
  C39      1.0000 0.81000  0.32970  0.54870  Biso   1.000  C
  C40      1.0000 0.60320  0.63500  0.57750  Biso   1.000  C
  H26      1.0000 0.60290  0.65910  0.51810  Biso   1.000  H
  C41      1.0000 0.53900  0.67460  0.64730  Biso   1.000  C
  H27      1.0000 0.49390  0.72380  0.63470  Biso   1.000  H
  C42      1.0000 0.54050  0.64230  0.73600  Biso   1.000  C
  H28      1.0000 0.49800  0.67030  0.78590  Biso   1.000  H
  C43      1.0000 0.60510  0.56840  0.75060  Biso   1.000  C
  C44      1.0000 0.66660  0.53070  0.67520  Biso   1.000  C
  H29      1.0000 0.71050  0.47960  0.68450  Biso   1.000  H
  C45      1.0000 0.61630  0.53050  0.84340  Biso   1.000  C
  C46      1.0000 0.63860  0.53900  0.01800  Biso   1.000  C
  C47      1.0000 0.65310  0.56780  0.13370  Biso   1.000  C
  H30      1.0000 0.64370  0.63750  0.18250  Biso   1.000  H
  C48      1.0000 0.68230  0.48930  0.17590  Biso   1.000  C
  C49      1.0000 0.68840  0.38290  0.09970  Biso   1.000  C
  H31      1.0000 0.70470  0.32970  0.12960  Biso   1.000  H
  C50      1.0000 0.67140  0.35440  0.98380  Biso   1.000  C
  H32      1.0000 0.67560  0.28260  0.93360  Biso   1.000  H
  C51      1.0000 0.64740  0.43460  0.94120  Biso   1.000  C
  C52      1.0000 0.70670  0.51870  0.30150  Biso   1.000  C
