data_image0
_cell_length_a       21.1966
_cell_length_b       8.3014
_cell_length_c       23.8707
_cell_angle_alpha    90
_cell_angle_beta     104.639
_cell_angle_gamma    90

_symmetry_space_group_name_H-M    "P 1"
_symmetry_int_tables_number       1

loop_
  _symmetry_equiv_pos_as_xyz
  'x, y, z'

loop_
  _atom_site_label
  _atom_site_occupancy
  _atom_site_fract_x
  _atom_site_fract_y
  _atom_site_fract_z
  _atom_site_thermal_displace_type
  _atom_site_B_iso_or_equiv
  _atom_site_type_symbol
  N1       1.0000 0.58285  0.57860  0.29845  Biso   1.000  N
  N2       1.0000 0.61438  0.51840  0.35211  Biso   1.000  N
  H1       1.0000 0.60000  0.44010  0.36900  Biso   1.000  H
  N3       1.0000 0.83076  0.93650  0.32800  Biso   1.000  N
  N4       1.0000 0.80395  0.03469  0.36223  Biso   1.000  N
  H2       1.0000 0.82140  0.12350  0.37710  Biso   1.000  H
  C1       1.0000 0.71402  0.55940  0.43461  Biso   1.000  C
  H3       1.0000 0.68790  0.55840  0.46210  Biso   1.000  H
  H4       1.0000 0.74760  0.63940  0.44560  Biso   1.000  H
  H5       1.0000 0.73360  0.45540  0.43380  Biso   1.000  H
  C2       1.0000 0.67129  0.59880  0.37495  Biso   1.000  C
  C3       1.0000 0.67802  0.71620  0.33438  Biso   1.000  C
  C4       1.0000 0.62115  0.70000  0.28743  Biso   1.000  C
  C5       1.0000 0.60128  0.80150  0.23307  Biso   1.000  C
  H6       1.0000 0.62980  0.77930  0.20860  Biso   1.000  H
  H7       1.0000 0.60420  0.91360  0.24340  Biso   1.000  H
  H8       1.0000 0.55720  0.77610  0.21280  Biso   1.000  H
  C6       1.0000 0.70729  0.06490  0.40508  Biso   1.000  C
  H9       1.0000 0.73610  0.12810  0.43430  Biso   1.000  H
  H10      1.0000 0.68460  0.98880  0.42310  Biso   1.000  H
  H11      1.0000 0.67630  0.13430  0.38010  Biso   1.000  H
  C7       1.0000 0.74641  0.97560  0.36997  Biso   1.000  C
  C8       1.0000 0.73439  0.83040  0.33886  Biso   1.000  C
  C9       1.0000 0.78864  0.81200  0.31385  Biso   1.000  C
  C10      1.0000 0.80254  0.67360  0.27690  Biso   1.000  C
  H12      1.0000 0.78830  0.70230  0.23670  Biso   1.000  H
  H13      1.0000 0.77960  0.57910  0.28400  Biso   1.000  H
  H14      1.0000 0.84850  0.65190  0.28670  Biso   1.000  H
  N5       1.0000 0.41715  0.57860  0.20155  Biso   1.000  N
  N6       1.0000 0.38562  0.51840  0.14789  Biso   1.000  N
  H15      1.0000 0.40000  0.44010  0.13100  Biso   1.000  H
  N7       1.0000 0.16924  0.93650  0.17200  Biso   1.000  N
  N8       1.0000 0.19605  0.03469  0.13777  Biso   1.000  N
  H16      1.0000 0.17860  0.12350  0.12290  Biso   1.000  H
  C11      1.0000 0.28598  0.55940  0.06539  Biso   1.000  C
  H17      1.0000 0.31210  0.55840  0.03790  Biso   1.000  H
  H18      1.0000 0.25240  0.63940  0.05440  Biso   1.000  H
  H19      1.0000 0.26640  0.45540  0.06620  Biso   1.000  H
  C12      1.0000 0.32871  0.59880  0.12505  Biso   1.000  C
  C13      1.0000 0.32198  0.71620  0.16562  Biso   1.000  C
  C14      1.0000 0.37885  0.70000  0.21257  Biso   1.000  C
  C15      1.0000 0.39872  0.80150  0.26693  Biso   1.000  C
  H20      1.0000 0.37020  0.77930  0.29140  Biso   1.000  H
  H21      1.0000 0.39580  0.91360  0.25660  Biso   1.000  H
  H22      1.0000 0.44280  0.77610  0.28720  Biso   1.000  H
  C16      1.0000 0.29271  0.06490  0.09492  Biso   1.000  C
  H23      1.0000 0.26390  0.12810  0.06570  Biso   1.000  H
  H24      1.0000 0.31540  0.98880  0.07690  Biso   1.000  H
  H25      1.0000 0.32370  0.13430  0.11990  Biso   1.000  H
  C17      1.0000 0.25359  0.97560  0.13003  Biso   1.000  C
  C18      1.0000 0.26561  0.83040  0.16114  Biso   1.000  C
  C19      1.0000 0.21136  0.81200  0.18615  Biso   1.000  C
  C20      1.0000 0.19746  0.67360  0.22310  Biso   1.000  C
  H26      1.0000 0.21170  0.70230  0.26330  Biso   1.000  H
  H27      1.0000 0.22040  0.57910  0.21600  Biso   1.000  H
  H28      1.0000 0.15150  0.65190  0.21330  Biso   1.000  H
  Zn1      1.0000 0.50000  0.47089  0.25000  Biso   1.000  Zn
  N9       1.0000 0.08285  0.07860  0.29845  Biso   1.000  N
  N10      1.0000 0.11438  0.01840  0.35211  Biso   1.000  N
  H29      1.0000 0.10000  0.94010  0.36900  Biso   1.000  H
  N11      1.0000 0.33076  0.43650  0.32800  Biso   1.000  N
  N12      1.0000 0.30395  0.53469  0.36223  Biso   1.000  N
  H30      1.0000 0.32140  0.62350  0.37710  Biso   1.000  H
  C21      1.0000 0.21402  0.05940  0.43461  Biso   1.000  C
  H31      1.0000 0.18790  0.05840  0.46210  Biso   1.000  H
  H32      1.0000 0.24760  0.13940  0.44560  Biso   1.000  H
  H33      1.0000 0.23360  0.95540  0.43380  Biso   1.000  H
  C22      1.0000 0.17129  0.09880  0.37495  Biso   1.000  C
  C23      1.0000 0.17802  0.21620  0.33438  Biso   1.000  C
  C24      1.0000 0.12115  0.20000  0.28743  Biso   1.000  C
  C25      1.0000 0.10128  0.30150  0.23307  Biso   1.000  C
  H34      1.0000 0.12980  0.27930  0.20860  Biso   1.000  H
  H35      1.0000 0.10420  0.41360  0.24340  Biso   1.000  H
  H36      1.0000 0.05720  0.27610  0.21280  Biso   1.000  H
  C26      1.0000 0.20729  0.56490  0.40508  Biso   1.000  C
  H37      1.0000 0.23610  0.62810  0.43430  Biso   1.000  H
  H38      1.0000 0.18460  0.48880  0.42310  Biso   1.000  H
  H39      1.0000 0.17630  0.63430  0.38010  Biso   1.000  H
  C27      1.0000 0.24641  0.47560  0.36997  Biso   1.000  C
  C28      1.0000 0.23439  0.33040  0.33886  Biso   1.000  C
  C29      1.0000 0.28864  0.31200  0.31385  Biso   1.000  C
  C30      1.0000 0.30254  0.17360  0.27690  Biso   1.000  C
  H40      1.0000 0.28830  0.20230  0.23670  Biso   1.000  H
  H41      1.0000 0.27960  0.07910  0.28400  Biso   1.000  H
  H42      1.0000 0.34850  0.15190  0.28670  Biso   1.000  H
  N13      1.0000 0.91715  0.07860  0.20155  Biso   1.000  N
  N14      1.0000 0.88562  0.01840  0.14789  Biso   1.000  N
  H43      1.0000 0.90000  0.94010  0.13100  Biso   1.000  H
  N15      1.0000 0.66924  0.43650  0.17200  Biso   1.000  N
  N16      1.0000 0.69605  0.53469  0.13777  Biso   1.000  N
  H44      1.0000 0.67860  0.62350  0.12290  Biso   1.000  H
  C31      1.0000 0.78598  0.05940  0.06539  Biso   1.000  C
  H45      1.0000 0.81210  0.05840  0.03790  Biso   1.000  H
  H46      1.0000 0.75240  0.13940  0.05440  Biso   1.000  H
  H47      1.0000 0.76640  0.95540  0.06620  Biso   1.000  H
  C32      1.0000 0.82871  0.09880  0.12505  Biso   1.000  C
  C33      1.0000 0.82198  0.21620  0.16562  Biso   1.000  C
  C34      1.0000 0.87885  0.20000  0.21257  Biso   1.000  C
  C35      1.0000 0.89872  0.30150  0.26693  Biso   1.000  C
  H48      1.0000 0.87020  0.27930  0.29140  Biso   1.000  H
  H49      1.0000 0.89580  0.41360  0.25660  Biso   1.000  H
  H50      1.0000 0.94280  0.27610  0.28720  Biso   1.000  H
  C36      1.0000 0.79271  0.56490  0.09492  Biso   1.000  C
  H51      1.0000 0.76390  0.62810  0.06570  Biso   1.000  H
  H52      1.0000 0.81540  0.48880  0.07690  Biso   1.000  H
  H53      1.0000 0.82370  0.63430  0.11990  Biso   1.000  H
  C37      1.0000 0.75359  0.47560  0.13003  Biso   1.000  C
  C38      1.0000 0.76561  0.33040  0.16114  Biso   1.000  C
  C39      1.0000 0.71136  0.31200  0.18615  Biso   1.000  C
  C40      1.0000 0.69746  0.17360  0.22310  Biso   1.000  C
  H54      1.0000 0.71170  0.20230  0.26330  Biso   1.000  H
  H55      1.0000 0.72040  0.07910  0.21600  Biso   1.000  H
  H56      1.0000 0.65150  0.15190  0.21330  Biso   1.000  H
  Zn2      1.0000 0.00000  0.97089  0.25000  Biso   1.000  Zn
  N17      1.0000 0.41715  0.42140  0.70155  Biso   1.000  N
  N18      1.0000 0.38562  0.48160  0.64789  Biso   1.000  N
  H57      1.0000 0.40000  0.55990  0.63100  Biso   1.000  H
  N19      1.0000 0.16924  0.06350  0.67200  Biso   1.000  N
  N20      1.0000 0.19605  0.96531  0.63777  Biso   1.000  N
  H58      1.0000 0.17860  0.87650  0.62290  Biso   1.000  H
  C41      1.0000 0.28598  0.44060  0.56539  Biso   1.000  C
  H59      1.0000 0.31210  0.44160  0.53790  Biso   1.000  H
  H60      1.0000 0.25240  0.36060  0.55440  Biso   1.000  H
  H61      1.0000 0.26640  0.54460  0.56620  Biso   1.000  H
  C42      1.0000 0.32871  0.40120  0.62505  Biso   1.000  C
  C43      1.0000 0.32198  0.28380  0.66562  Biso   1.000  C
  C44      1.0000 0.37885  0.30000  0.71257  Biso   1.000  C
  C45      1.0000 0.39872  0.19850  0.76693  Biso   1.000  C
  H62      1.0000 0.37020  0.22070  0.79140  Biso   1.000  H
  H63      1.0000 0.39580  0.08640  0.75660  Biso   1.000  H
  H64      1.0000 0.44280  0.22390  0.78720  Biso   1.000  H
  C46      1.0000 0.29271  0.93510  0.59492  Biso   1.000  C
  H65      1.0000 0.26390  0.87190  0.56570  Biso   1.000  H
  H66      1.0000 0.31540  0.01120  0.57690  Biso   1.000  H
  H67      1.0000 0.32370  0.86570  0.61990  Biso   1.000  H
  C47      1.0000 0.25359  0.02440  0.63003  Biso   1.000  C
  C48      1.0000 0.26561  0.16960  0.66114  Biso   1.000  C
  C49      1.0000 0.21136  0.18800  0.68615  Biso   1.000  C
  C50      1.0000 0.19746  0.32640  0.72310  Biso   1.000  C
  H68      1.0000 0.21170  0.29770  0.76330  Biso   1.000  H
  H69      1.0000 0.22040  0.42090  0.71600  Biso   1.000  H
  H70      1.0000 0.15150  0.34810  0.71330  Biso   1.000  H
  N21      1.0000 0.58285  0.42140  0.79845  Biso   1.000  N
  N22      1.0000 0.61438  0.48160  0.85211  Biso   1.000  N
  H71      1.0000 0.60000  0.55990  0.86900  Biso   1.000  H
  N23      1.0000 0.83076  0.06350  0.82800  Biso   1.000  N
  N24      1.0000 0.80395  0.96531  0.86223  Biso   1.000  N
  H72      1.0000 0.82140  0.87650  0.87710  Biso   1.000  H
  C51      1.0000 0.71402  0.44060  0.93461  Biso   1.000  C
  H73      1.0000 0.68790  0.44160  0.96210  Biso   1.000  H
  H74      1.0000 0.74760  0.36060  0.94560  Biso   1.000  H
  H75      1.0000 0.73360  0.54460  0.93380  Biso   1.000  H
  C52      1.0000 0.67129  0.40120  0.87495  Biso   1.000  C
  C53      1.0000 0.67802  0.28380  0.83438  Biso   1.000  C
  C54      1.0000 0.62115  0.30000  0.78743  Biso   1.000  C
  C55      1.0000 0.60128  0.19850  0.73307  Biso   1.000  C
  H76      1.0000 0.62980  0.22070  0.70860  Biso   1.000  H
  H77      1.0000 0.60420  0.08640  0.74340  Biso   1.000  H
  H78      1.0000 0.55720  0.22390  0.71280  Biso   1.000  H
  C56      1.0000 0.70729  0.93510  0.90508  Biso   1.000  C
  H79      1.0000 0.73610  0.87190  0.93430  Biso   1.000  H
  H80      1.0000 0.68460  0.01120  0.92310  Biso   1.000  H
  H81      1.0000 0.67630  0.86570  0.88010  Biso   1.000  H
  C57      1.0000 0.74641  0.02440  0.86997  Biso   1.000  C
  C58      1.0000 0.73439  0.16960  0.83886  Biso   1.000  C
  C59      1.0000 0.78864  0.18800  0.81385  Biso   1.000  C
  C60      1.0000 0.80254  0.32640  0.77690  Biso   1.000  C
  H82      1.0000 0.78830  0.29770  0.73670  Biso   1.000  H
  H83      1.0000 0.77960  0.42090  0.78400  Biso   1.000  H
  H84      1.0000 0.84850  0.34810  0.78670  Biso   1.000  H
  Zn3      1.0000 0.50000  0.52911  0.75000  Biso   1.000  Zn
  N25      1.0000 0.91715  0.92140  0.70155  Biso   1.000  N
  N26      1.0000 0.88562  0.98160  0.64789  Biso   1.000  N
  H85      1.0000 0.90000  0.05990  0.63100  Biso   1.000  H
  N27      1.0000 0.66924  0.56350  0.67200  Biso   1.000  N
  N28      1.0000 0.69605  0.46531  0.63777  Biso   1.000  N
  H86      1.0000 0.67860  0.37650  0.62290  Biso   1.000  H
  C61      1.0000 0.78598  0.94060  0.56539  Biso   1.000  C
  H87      1.0000 0.81210  0.94160  0.53790  Biso   1.000  H
  H88      1.0000 0.75240  0.86060  0.55440  Biso   1.000  H
  H89      1.0000 0.76640  0.04460  0.56620  Biso   1.000  H
  C62      1.0000 0.82871  0.90120  0.62505  Biso   1.000  C
  C63      1.0000 0.82198  0.78380  0.66562  Biso   1.000  C
  C64      1.0000 0.87885  0.80000  0.71257  Biso   1.000  C
  C65      1.0000 0.89872  0.69850  0.76693  Biso   1.000  C
  H90      1.0000 0.87020  0.72070  0.79140  Biso   1.000  H
  H91      1.0000 0.89580  0.58640  0.75660  Biso   1.000  H
  H92      1.0000 0.94280  0.72390  0.78720  Biso   1.000  H
  C66      1.0000 0.79271  0.43510  0.59492  Biso   1.000  C
  H93      1.0000 0.76390  0.37190  0.56570  Biso   1.000  H
  H94      1.0000 0.81540  0.51120  0.57690  Biso   1.000  H
  H95      1.0000 0.82370  0.36570  0.61990  Biso   1.000  H
  C67      1.0000 0.75359  0.52440  0.63003  Biso   1.000  C
  C68      1.0000 0.76561  0.66960  0.66114  Biso   1.000  C
  C69      1.0000 0.71136  0.68800  0.68615  Biso   1.000  C
  C70      1.0000 0.69746  0.82640  0.72310  Biso   1.000  C
  H96      1.0000 0.71170  0.79770  0.76330  Biso   1.000  H
  H97      1.0000 0.72040  0.92090  0.71600  Biso   1.000  H
  H98      1.0000 0.65150  0.84810  0.71330  Biso   1.000  H
  N29      1.0000 0.08285  0.92140  0.79845  Biso   1.000  N
  N30      1.0000 0.11438  0.98160  0.85211  Biso   1.000  N
  H99      1.0000 0.10000  0.05990  0.86900  Biso   1.000  H
  N31      1.0000 0.33076  0.56350  0.82800  Biso   1.000  N
  N32      1.0000 0.30395  0.46531  0.86223  Biso   1.000  N
  H100     1.0000 0.32140  0.37650  0.87710  Biso   1.000  H
  C71      1.0000 0.21402  0.94060  0.93461  Biso   1.000  C
  H101     1.0000 0.18790  0.94160  0.96210  Biso   1.000  H
  H102     1.0000 0.24760  0.86060  0.94560  Biso   1.000  H
  H103     1.0000 0.23360  0.04460  0.93380  Biso   1.000  H
  C72      1.0000 0.17129  0.90120  0.87495  Biso   1.000  C
  C73      1.0000 0.17802  0.78380  0.83438  Biso   1.000  C
  C74      1.0000 0.12115  0.80000  0.78743  Biso   1.000  C
  C75      1.0000 0.10128  0.69850  0.73307  Biso   1.000  C
  H104     1.0000 0.12980  0.72070  0.70860  Biso   1.000  H
  H105     1.0000 0.10420  0.58640  0.74340  Biso   1.000  H
  H106     1.0000 0.05720  0.72390  0.71280  Biso   1.000  H
  C76      1.0000 0.20729  0.43510  0.90508  Biso   1.000  C
  H107     1.0000 0.23610  0.37190  0.93430  Biso   1.000  H
  H108     1.0000 0.18460  0.51120  0.92310  Biso   1.000  H
  H109     1.0000 0.17630  0.36570  0.88010  Biso   1.000  H
  C77      1.0000 0.24641  0.52440  0.86997  Biso   1.000  C
  C78      1.0000 0.23439  0.66960  0.83886  Biso   1.000  C
  C79      1.0000 0.28864  0.68800  0.81385  Biso   1.000  C
  C80      1.0000 0.30254  0.82640  0.77690  Biso   1.000  C
  H110     1.0000 0.28830  0.79770  0.73670  Biso   1.000  H
  H111     1.0000 0.27960  0.92090  0.78400  Biso   1.000  H
  H112     1.0000 0.34850  0.84810  0.78670  Biso   1.000  H
  Zn4      1.0000 0.00000  0.02911  0.75000  Biso   1.000  Zn
