data_image0
_cell_length_a       18.061
_cell_length_b       26.186
_cell_length_c       9.735
_cell_angle_alpha    90
_cell_angle_beta     90
_cell_angle_gamma    90

_symmetry_space_group_name_H-M    "P 1"
_symmetry_int_tables_number       1

loop_
  _symmetry_equiv_pos_as_xyz
  'x, y, z'

loop_
  _atom_site_label
  _atom_site_occupancy
  _atom_site_fract_x
  _atom_site_fract_y
  _atom_site_fract_z
  _atom_site_thermal_displace_type
  _atom_site_B_iso_or_equiv
  _atom_site_type_symbol
  N1       1.0000 0.30580  0.17730  0.33200  Biso   1.000  N
  H1       1.0000 0.34860  0.18270  0.36770  Biso   1.000  H
  H2       1.0000 0.27490  0.20210  0.32310  Biso   1.000  H
  C1       1.0000 0.33040  0.08510  0.29350  Biso   1.000  C
  C2       1.0000 0.28640  0.12800  0.28620  Biso   1.000  C
  C3       1.0000 0.21880  0.12500  0.21410  Biso   1.000  C
  H3       1.0000 0.18970  0.15410  0.20550  Biso   1.000  H
  C4       1.0000 0.19500  0.08030  0.15640  Biso   1.000  C
  C5       1.0000 0.24050  0.03710  0.16130  Biso   1.000  C
  H4       1.0000 0.22640  0.00670  0.11930  Biso   1.000  H
  C6       1.0000 0.30830  0.04120  0.23220  Biso   1.000  C
  H5       1.0000 0.33900  0.01270  0.23700  Biso   1.000  H
  N2       1.0000 0.18100  0.17300  0.18600  Biso   1.000  N
  H6       1.0000 0.14350  0.17390  0.13210  Biso   1.000  H
  H7       1.0000 0.19690  0.20100  0.22300  Biso   1.000  H
  H8       1.0000 0.30100  0.15830  0.32800  Biso   1.000  H
  N3       1.0000 0.22710  0.99220  0.08800  Biso   1.000  N
  H9       1.0000 0.18880  0.98990  0.03590  Biso   1.000  H
  H10      1.0000 0.25710  0.96690  0.09540  Biso   1.000  H
  C7       1.0000 0.48850  0.96850  0.11350  Biso   1.000  C
  C8       1.0000 0.54640  0.00390  0.11040  Biso   1.000  C
  H11      1.0000 0.57760  0.00640  0.18620  Biso   1.000  H
  C9       1.0000 0.44100  0.96490  0.00130  Biso   1.000  C
  N4       1.0000 0.37650  0.93310  0.99830  Biso   1.000  N
  H12      1.0000 0.34730  0.93390  0.92860  Biso   1.000  H
  H13      1.0000 0.36700  0.91310  0.06630  Biso   1.000  H
  H14      1.0000 0.40170  0.94190  0.00170  Biso   1.000  H
  C10      1.0000 0.40340  0.08590  0.37180  Biso   1.000  C
  O1       1.0000 0.43930  0.04510  0.37120  Biso   1.000  O
  O2       1.0000 0.42320  0.12690  0.42810  Biso   1.000  O
  C11      1.0000 0.12220  0.07710  0.07660  Biso   1.000  C
  O3       1.0000 0.09770  0.03380  0.05410  Biso   1.000  O
  O4       1.0000 0.09200  0.11870  0.04570  Biso   1.000  O
  C12      1.0000 0.48020  0.93530  0.23780  Biso   1.000  C
  O5       1.0000 0.51640  0.94500  0.34680  Biso   1.000  O
  O6       1.0000 0.44340  0.89360  0.23120  Biso   1.000  O
  Mg1      1.0000 0.50317  0.13075  0.57560  Biso   1.000  Mg
  C13      1.0000 0.36010  0.13520  0.72400  Biso   1.000  C
  H15      1.0000 0.35700  0.10690  0.66720  Biso   1.000  H
  C14      1.0000 0.23680  0.11640  0.79000  Biso   1.000  C
  H16      1.0000 0.21060  0.12210  0.87490  Biso   1.000  H
  H17      1.0000 0.25020  0.08100  0.78380  Biso   1.000  H
  H18      1.0000 0.20570  0.12540  0.71430  Biso   1.000  H
  C15      1.0000 0.31400  0.18800  0.90000  Biso   1.000  C
  H19      1.0000 0.27320  0.18840  0.96400  Biso   1.000  H
  H20      1.0000 0.31760  0.22110  0.85720  Biso   1.000  H
  H21      1.0000 0.35890  0.18100  0.94890  Biso   1.000  H
  N5       1.0000 0.30050  0.14630  0.78800  Biso   1.000  N
  O7       1.0000 0.41990  0.15590  0.72700  Biso   1.000  O
  C16      1.0000 0.24300  0.24300  0.69500  Biso   1.000  C
  H22      1.0000 0.20230  0.26200  0.66530  Biso   1.000  H
  C17      1.0000 0.25400  0.24400  0.93700  Biso   1.000  C
  H23      1.0000 0.22750  0.22690  0.01020  Biso   1.000  H
  H24      1.0000 0.24160  0.27920  0.93610  Biso   1.000  H
  H25      1.0000 0.30620  0.23960  0.95160  Biso   1.000  H
  C18      1.0000 0.22700  0.16200  0.79800  Biso   1.000  C
  H26      1.0000 0.19630  0.14920  0.87130  Biso   1.000  H
  H27      1.0000 0.27500  0.14670  0.80350  Biso   1.000  H
  H28      1.0000 0.20450  0.15390  0.71150  Biso   1.000  H
  N6       1.0000 0.23400  0.22200  0.81200  Biso   1.000  N
  O8       1.0000 0.29500  0.24200  0.61800  Biso   1.000  O
  C19      1.0000 0.35200  0.13250  0.70200  Biso   1.000  C
  H29      1.0000 0.32400  0.12920  0.62280  Biso   1.000  H
  C20      1.0000 0.34900  0.12000  0.94300  Biso   1.000  C
  H30      1.0000 0.32020  0.10020  0.00490  Biso   1.000  H
  H31      1.0000 0.34900  0.15540  0.97330  Biso   1.000  H
  H32      1.0000 0.39950  0.10810  0.94290  Biso   1.000  H
  C21      1.0000 0.24500  0.08900  0.78300  Biso   1.000  C
  H33      1.0000 0.22850  0.07280  0.86550  Biso   1.000  H
  H34      1.0000 0.25260  0.06400  0.71260  Biso   1.000  H
  H35      1.0000 0.20890  0.11350  0.75310  Biso   1.000  H
  N7       1.0000 0.32020  0.11730  0.81200  Biso   1.000  N
  O9       1.0000 0.41290  0.15060  0.68600  Biso   1.000  O
  N8       1.0000 0.19420  0.82270  0.83200  Biso   1.000  N
  H36      1.0000 0.15140  0.81730  0.86770  Biso   1.000  H
  H37      1.0000 0.22510  0.79790  0.82310  Biso   1.000  H
  C22      1.0000 0.16960  0.91490  0.79350  Biso   1.000  C
  C23      1.0000 0.21360  0.87200  0.78620  Biso   1.000  C
  C24      1.0000 0.28120  0.87500  0.71410  Biso   1.000  C
  H38      1.0000 0.31030  0.84590  0.70550  Biso   1.000  H
  C25      1.0000 0.30500  0.91970  0.65640  Biso   1.000  C
  C26      1.0000 0.25950  0.96290  0.66130  Biso   1.000  C
  H39      1.0000 0.27360  0.99330  0.61930  Biso   1.000  H
  C27      1.0000 0.19170  0.95880  0.73220  Biso   1.000  C
  H40      1.0000 0.16100  0.98730  0.73700  Biso   1.000  H
  N9       1.0000 0.31900  0.82700  0.68600  Biso   1.000  N
  H41      1.0000 0.35650  0.82610  0.63210  Biso   1.000  H
  H42      1.0000 0.30310  0.79900  0.72300  Biso   1.000  H
  H43      1.0000 0.19900  0.84170  0.82800  Biso   1.000  H
  N10      1.0000 0.27290  0.00780  0.58800  Biso   1.000  N
  H44      1.0000 0.31120  0.01010  0.53590  Biso   1.000  H
  H45      1.0000 0.24290  0.03310  0.59540  Biso   1.000  H
  C28      1.0000 0.01150  0.03150  0.61350  Biso   1.000  C
  C29      1.0000 0.95360  0.99610  0.61040  Biso   1.000  C
  H46      1.0000 0.92240  0.99360  0.68620  Biso   1.000  H
  C30      1.0000 0.05900  0.03510  0.50130  Biso   1.000  C
  N11      1.0000 0.12350  0.06690  0.49830  Biso   1.000  N
  H47      1.0000 0.15270  0.06610  0.42860  Biso   1.000  H
  H48      1.0000 0.13300  0.08690  0.56630  Biso   1.000  H
  H49      1.0000 0.09830  0.05810  0.50170  Biso   1.000  H
  C31      1.0000 0.09660  0.91410  0.87180  Biso   1.000  C
  O10      1.0000 0.06070  0.95490  0.87120  Biso   1.000  O
  O11      1.0000 0.07680  0.87310  0.92810  Biso   1.000  O
  C32      1.0000 0.37780  0.92290  0.57660  Biso   1.000  C
  O12      1.0000 0.40230  0.96620  0.55410  Biso   1.000  O
  O13      1.0000 0.40800  0.88130  0.54570  Biso   1.000  O
  C33      1.0000 0.01980  0.06470  0.73780  Biso   1.000  C
  O14      1.0000 0.98360  0.05500  0.84680  Biso   1.000  O
  O15      1.0000 0.05660  0.10640  0.73120  Biso   1.000  O
  Mg2      1.0000 0.99683  0.86925  0.07560  Biso   1.000  Mg
  C34      1.0000 0.13990  0.86480  0.22400  Biso   1.000  C
  H50      1.0000 0.14300  0.89310  0.16720  Biso   1.000  H
  C35      1.0000 0.26320  0.88360  0.29000  Biso   1.000  C
  H51      1.0000 0.28940  0.87790  0.37490  Biso   1.000  H
  H52      1.0000 0.24980  0.91900  0.28380  Biso   1.000  H
  H53      1.0000 0.29430  0.87460  0.21430  Biso   1.000  H
  C36      1.0000 0.18600  0.81200  0.40000  Biso   1.000  C
  H54      1.0000 0.22680  0.81160  0.46400  Biso   1.000  H
  H55      1.0000 0.18240  0.77890  0.35720  Biso   1.000  H
  H56      1.0000 0.14110  0.81900  0.44890  Biso   1.000  H
  N12      1.0000 0.19950  0.85370  0.28800  Biso   1.000  N
  O16      1.0000 0.08010  0.84410  0.22700  Biso   1.000  O
  C37      1.0000 0.25700  0.75700  0.19500  Biso   1.000  C
  H57      1.0000 0.29770  0.73800  0.16530  Biso   1.000  H
  C38      1.0000 0.24600  0.75600  0.43700  Biso   1.000  C
  H58      1.0000 0.27250  0.77310  0.51020  Biso   1.000  H
  H59      1.0000 0.25840  0.72080  0.43610  Biso   1.000  H
  H60      1.0000 0.19380  0.76040  0.45160  Biso   1.000  H
  C39      1.0000 0.27300  0.83800  0.29800  Biso   1.000  C
  H61      1.0000 0.30370  0.85080  0.37130  Biso   1.000  H
  H62      1.0000 0.22500  0.85330  0.30350  Biso   1.000  H
  H63      1.0000 0.29550  0.84610  0.21150  Biso   1.000  H
  N13      1.0000 0.26600  0.77800  0.31200  Biso   1.000  N
  O17      1.0000 0.20500  0.75800  0.11800  Biso   1.000  O
  C40      1.0000 0.14800  0.86750  0.20200  Biso   1.000  C
  H64      1.0000 0.17600  0.87080  0.12280  Biso   1.000  H
  C41      1.0000 0.15100  0.88000  0.44300  Biso   1.000  C
  H65      1.0000 0.17980  0.89980  0.50490  Biso   1.000  H
  H66      1.0000 0.15100  0.84460  0.47330  Biso   1.000  H
  H67      1.0000 0.10050  0.89190  0.44290  Biso   1.000  H
  C42      1.0000 0.25500  0.91100  0.28300  Biso   1.000  C
  H68      1.0000 0.27150  0.92720  0.36550  Biso   1.000  H
  H69      1.0000 0.24740  0.93600  0.21260  Biso   1.000  H
  H70      1.0000 0.29110  0.88650  0.25310  Biso   1.000  H
  N14      1.0000 0.17980  0.88270  0.31200  Biso   1.000  N
  O18      1.0000 0.08710  0.84940  0.18600  Biso   1.000  O
  N15      1.0000 0.69420  0.82270  0.66800  Biso   1.000  N
  H71      1.0000 0.65140  0.81730  0.63230  Biso   1.000  H
  H72      1.0000 0.72510  0.79790  0.67690  Biso   1.000  H
  C43      1.0000 0.66960  0.91490  0.70650  Biso   1.000  C
  C44      1.0000 0.71360  0.87200  0.71380  Biso   1.000  C
  C45      1.0000 0.78120  0.87500  0.78590  Biso   1.000  C
  H73      1.0000 0.81030  0.84590  0.79450  Biso   1.000  H
  C46      1.0000 0.80500  0.91970  0.84360  Biso   1.000  C
  C47      1.0000 0.75950  0.96290  0.83870  Biso   1.000  C
  H74      1.0000 0.77360  0.99330  0.88070  Biso   1.000  H
  C48      1.0000 0.69170  0.95880  0.76780  Biso   1.000  C
  H75      1.0000 0.66100  0.98730  0.76300  Biso   1.000  H
  N16      1.0000 0.81900  0.82700  0.81400  Biso   1.000  N
  H76      1.0000 0.85650  0.82610  0.86790  Biso   1.000  H
  H77      1.0000 0.80310  0.79900  0.77700  Biso   1.000  H
  H78      1.0000 0.69900  0.84170  0.67200  Biso   1.000  H
  N17      1.0000 0.77290  0.00780  0.91200  Biso   1.000  N
  H79      1.0000 0.81120  0.01010  0.96410  Biso   1.000  H
  H80      1.0000 0.74290  0.03310  0.90460  Biso   1.000  H
  C49      1.0000 0.51150  0.03150  0.88650  Biso   1.000  C
  C50      1.0000 0.45360  0.99610  0.88960  Biso   1.000  C
  H81      1.0000 0.42240  0.99360  0.81380  Biso   1.000  H
  C51      1.0000 0.55900  0.03510  0.99870  Biso   1.000  C
  N18      1.0000 0.62350  0.06690  0.00170  Biso   1.000  N
  H82      1.0000 0.65270  0.06610  0.07140  Biso   1.000  H
  H83      1.0000 0.63300  0.08690  0.93370  Biso   1.000  H
  H84      1.0000 0.59830  0.05810  0.99830  Biso   1.000  H
  C52      1.0000 0.59660  0.91410  0.62820  Biso   1.000  C
  O19      1.0000 0.56070  0.95490  0.62880  Biso   1.000  O
  O20      1.0000 0.57680  0.87310  0.57190  Biso   1.000  O
  C53      1.0000 0.87780  0.92290  0.92340  Biso   1.000  C
  O21      1.0000 0.90230  0.96620  0.94590  Biso   1.000  O
  O22      1.0000 0.90800  0.88130  0.95430  Biso   1.000  O
  C54      1.0000 0.51980  0.06470  0.76220  Biso   1.000  C
  O23      1.0000 0.48360  0.05500  0.65320  Biso   1.000  O
  O24      1.0000 0.55660  0.10640  0.76880  Biso   1.000  O
  Mg3      1.0000 0.49683  0.86925  0.42440  Biso   1.000  Mg
  C55      1.0000 0.63990  0.86480  0.27600  Biso   1.000  C
  H85      1.0000 0.64300  0.89310  0.33280  Biso   1.000  H
  C56      1.0000 0.76320  0.88360  0.21000  Biso   1.000  C
  H86      1.0000 0.78940  0.87790  0.12510  Biso   1.000  H
  H87      1.0000 0.74980  0.91900  0.21620  Biso   1.000  H
  H88      1.0000 0.79430  0.87460  0.28570  Biso   1.000  H
  C57      1.0000 0.68600  0.81200  0.10000  Biso   1.000  C
  H89      1.0000 0.72680  0.81160  0.03600  Biso   1.000  H
  H90      1.0000 0.68240  0.77890  0.14280  Biso   1.000  H
  H91      1.0000 0.64110  0.81900  0.05110  Biso   1.000  H
  N19      1.0000 0.69950  0.85370  0.21200  Biso   1.000  N
  O25      1.0000 0.58010  0.84410  0.27300  Biso   1.000  O
  C58      1.0000 0.75700  0.75700  0.30500  Biso   1.000  C
  H92      1.0000 0.79770  0.73800  0.33470  Biso   1.000  H
  C59      1.0000 0.74600  0.75600  0.06300  Biso   1.000  C
  H93      1.0000 0.77250  0.77310  0.98980  Biso   1.000  H
  H94      1.0000 0.75840  0.72080  0.06390  Biso   1.000  H
  H95      1.0000 0.69380  0.76040  0.04840  Biso   1.000  H
  C60      1.0000 0.77300  0.83800  0.20200  Biso   1.000  C
  H96      1.0000 0.80370  0.85080  0.12870  Biso   1.000  H
  H97      1.0000 0.72500  0.85330  0.19650  Biso   1.000  H
  H98      1.0000 0.79550  0.84610  0.28850  Biso   1.000  H
  N20      1.0000 0.76600  0.77800  0.18800  Biso   1.000  N
  O26      1.0000 0.70500  0.75800  0.38200  Biso   1.000  O
  C61      1.0000 0.64800  0.86750  0.29800  Biso   1.000  C
  H99      1.0000 0.67600  0.87080  0.37720  Biso   1.000  H
  C62      1.0000 0.65100  0.88000  0.05700  Biso   1.000  C
  H100     1.0000 0.67980  0.89980  0.99510  Biso   1.000  H
  H101     1.0000 0.65100  0.84460  0.02670  Biso   1.000  H
  H102     1.0000 0.60050  0.89190  0.05710  Biso   1.000  H
  C63      1.0000 0.75500  0.91100  0.21700  Biso   1.000  C
  H103     1.0000 0.77150  0.92720  0.13450  Biso   1.000  H
  H104     1.0000 0.74740  0.93600  0.28740  Biso   1.000  H
  H105     1.0000 0.79110  0.88650  0.24690  Biso   1.000  H
  N21      1.0000 0.67980  0.88270  0.18800  Biso   1.000  N
  O27      1.0000 0.58710  0.84940  0.31400  Biso   1.000  O
  N22      1.0000 0.80580  0.17730  0.16800  Biso   1.000  N
  H106     1.0000 0.84860  0.18270  0.13230  Biso   1.000  H
  H107     1.0000 0.77490  0.20210  0.17690  Biso   1.000  H
  C64      1.0000 0.83040  0.08510  0.20650  Biso   1.000  C
  C65      1.0000 0.78640  0.12800  0.21380  Biso   1.000  C
  C66      1.0000 0.71880  0.12500  0.28590  Biso   1.000  C
  H108     1.0000 0.68970  0.15410  0.29450  Biso   1.000  H
  C67      1.0000 0.69500  0.08030  0.34360  Biso   1.000  C
  C68      1.0000 0.74050  0.03710  0.33870  Biso   1.000  C
  H109     1.0000 0.72640  0.00670  0.38070  Biso   1.000  H
  C69      1.0000 0.80830  0.04120  0.26780  Biso   1.000  C
  H110     1.0000 0.83900  0.01270  0.26300  Biso   1.000  H
  N23      1.0000 0.68100  0.17300  0.31400  Biso   1.000  N
  H111     1.0000 0.64350  0.17390  0.36790  Biso   1.000  H
  H112     1.0000 0.69690  0.20100  0.27700  Biso   1.000  H
  H113     1.0000 0.80100  0.15830  0.17200  Biso   1.000  H
  N24      1.0000 0.72710  0.99220  0.41200  Biso   1.000  N
  H114     1.0000 0.68880  0.98990  0.46410  Biso   1.000  H
  H115     1.0000 0.75710  0.96690  0.40460  Biso   1.000  H
  C70      1.0000 0.98850  0.96850  0.38650  Biso   1.000  C
  C71      1.0000 0.04640  0.00390  0.38960  Biso   1.000  C
  H116     1.0000 0.07760  0.00640  0.31380  Biso   1.000  H
  C72      1.0000 0.94100  0.96490  0.49870  Biso   1.000  C
  N25      1.0000 0.87650  0.93310  0.50170  Biso   1.000  N
  H117     1.0000 0.84730  0.93390  0.57140  Biso   1.000  H
  H118     1.0000 0.86700  0.91310  0.43370  Biso   1.000  H
  H119     1.0000 0.90170  0.94190  0.49830  Biso   1.000  H
  C73      1.0000 0.90340  0.08590  0.12820  Biso   1.000  C
  O28      1.0000 0.93930  0.04510  0.12880  Biso   1.000  O
  O29      1.0000 0.92320  0.12690  0.07190  Biso   1.000  O
  C74      1.0000 0.62220  0.07710  0.42340  Biso   1.000  C
  O30      1.0000 0.59770  0.03380  0.44590  Biso   1.000  O
  O31      1.0000 0.59200  0.11870  0.45430  Biso   1.000  O
  C75      1.0000 0.98020  0.93530  0.26220  Biso   1.000  C
  O32      1.0000 0.01640  0.94500  0.15320  Biso   1.000  O
  O33      1.0000 0.94340  0.89360  0.26880  Biso   1.000  O
  Mg4      1.0000 0.00317  0.13075  0.92440  Biso   1.000  Mg
  C76      1.0000 0.86010  0.13520  0.77600  Biso   1.000  C
  H120     1.0000 0.85700  0.10690  0.83280  Biso   1.000  H
  C77      1.0000 0.73680  0.11640  0.71000  Biso   1.000  C
  H121     1.0000 0.71060  0.12210  0.62510  Biso   1.000  H
  H122     1.0000 0.75020  0.08100  0.71620  Biso   1.000  H
  H123     1.0000 0.70570  0.12540  0.78570  Biso   1.000  H
  C78      1.0000 0.81400  0.18800  0.60000  Biso   1.000  C
  H124     1.0000 0.77320  0.18840  0.53600  Biso   1.000  H
  H125     1.0000 0.81760  0.22110  0.64280  Biso   1.000  H
  H126     1.0000 0.85890  0.18100  0.55110  Biso   1.000  H
  N26      1.0000 0.80050  0.14630  0.71200  Biso   1.000  N
  O34      1.0000 0.91990  0.15590  0.77300  Biso   1.000  O
  C79      1.0000 0.74300  0.24300  0.80500  Biso   1.000  C
  H127     1.0000 0.70230  0.26200  0.83470  Biso   1.000  H
  C80      1.0000 0.75400  0.24400  0.56300  Biso   1.000  C
  H128     1.0000 0.72750  0.22690  0.48980  Biso   1.000  H
  H129     1.0000 0.74160  0.27920  0.56390  Biso   1.000  H
  H130     1.0000 0.80620  0.23960  0.54840  Biso   1.000  H
  C81      1.0000 0.72700  0.16200  0.70200  Biso   1.000  C
  H131     1.0000 0.69630  0.14920  0.62870  Biso   1.000  H
  H132     1.0000 0.77500  0.14670  0.69650  Biso   1.000  H
  H133     1.0000 0.70450  0.15390  0.78850  Biso   1.000  H
  N27      1.0000 0.73400  0.22200  0.68800  Biso   1.000  N
  O35      1.0000 0.79500  0.24200  0.88200  Biso   1.000  O
  C82      1.0000 0.85200  0.13250  0.79800  Biso   1.000  C
  H134     1.0000 0.82400  0.12920  0.87720  Biso   1.000  H
  C83      1.0000 0.84900  0.12000  0.55700  Biso   1.000  C
  H135     1.0000 0.82020  0.10020  0.49510  Biso   1.000  H
  H136     1.0000 0.84900  0.15540  0.52670  Biso   1.000  H
  H137     1.0000 0.89950  0.10810  0.55710  Biso   1.000  H
  C84      1.0000 0.74500  0.08900  0.71700  Biso   1.000  C
  H138     1.0000 0.72850  0.07280  0.63450  Biso   1.000  H
  H139     1.0000 0.75260  0.06400  0.78740  Biso   1.000  H
  H140     1.0000 0.70890  0.11350  0.74690  Biso   1.000  H
  N28      1.0000 0.82020  0.11730  0.68800  Biso   1.000  N
  O36      1.0000 0.91290  0.15060  0.81400  Biso   1.000  O
  Mg5      1.0000 0.50000  0.00000  0.50000  Biso   1.000  Mg
  Mg6      1.0000 0.00000  0.00000  0.00000  Biso   1.000  Mg
  N29      1.0000 0.69420  0.67730  0.16800  Biso   1.000  N
  H141     1.0000 0.65140  0.68270  0.13230  Biso   1.000  H
  H142     1.0000 0.72510  0.70210  0.17690  Biso   1.000  H
  C85      1.0000 0.66960  0.58510  0.20650  Biso   1.000  C
  C86      1.0000 0.71360  0.62800  0.21380  Biso   1.000  C
  C87      1.0000 0.78120  0.62500  0.28590  Biso   1.000  C
  H143     1.0000 0.81030  0.65410  0.29450  Biso   1.000  H
  C88      1.0000 0.80500  0.58030  0.34360  Biso   1.000  C
  C89      1.0000 0.75950  0.53710  0.33870  Biso   1.000  C
  H144     1.0000 0.77360  0.50670  0.38070  Biso   1.000  H
  C90      1.0000 0.69170  0.54120  0.26780  Biso   1.000  C
  H145     1.0000 0.66100  0.51270  0.26300  Biso   1.000  H
  N30      1.0000 0.81900  0.67300  0.31400  Biso   1.000  N
  H146     1.0000 0.85650  0.67390  0.36790  Biso   1.000  H
  H147     1.0000 0.80310  0.70100  0.27700  Biso   1.000  H
  H148     1.0000 0.69900  0.65830  0.17200  Biso   1.000  H
  N31      1.0000 0.77290  0.49220  0.41200  Biso   1.000  N
  H149     1.0000 0.81120  0.48990  0.46410  Biso   1.000  H
  H150     1.0000 0.74290  0.46690  0.40460  Biso   1.000  H
  C91      1.0000 0.51150  0.46850  0.38650  Biso   1.000  C
  C92      1.0000 0.45360  0.50390  0.38960  Biso   1.000  C
  H151     1.0000 0.42240  0.50640  0.31380  Biso   1.000  H
  C93      1.0000 0.55900  0.46490  0.49870  Biso   1.000  C
  N32      1.0000 0.62350  0.43310  0.50170  Biso   1.000  N
  H152     1.0000 0.65270  0.43390  0.57140  Biso   1.000  H
  H153     1.0000 0.63300  0.41310  0.43370  Biso   1.000  H
  H154     1.0000 0.59830  0.44190  0.49830  Biso   1.000  H
  C94      1.0000 0.59660  0.58590  0.12820  Biso   1.000  C
  O37      1.0000 0.56070  0.54510  0.12880  Biso   1.000  O
  O38      1.0000 0.57680  0.62690  0.07190  Biso   1.000  O
  C95      1.0000 0.87780  0.57710  0.42340  Biso   1.000  C
  O39      1.0000 0.90230  0.53380  0.44590  Biso   1.000  O
  O40      1.0000 0.90800  0.61870  0.45430  Biso   1.000  O
  C96      1.0000 0.51980  0.43530  0.26220  Biso   1.000  C
  O41      1.0000 0.48360  0.44500  0.15320  Biso   1.000  O
  O42      1.0000 0.55660  0.39360  0.26880  Biso   1.000  O
  Mg7      1.0000 0.49683  0.63075  0.92440  Biso   1.000  Mg
  C97      1.0000 0.63990  0.63520  0.77600  Biso   1.000  C
  H155     1.0000 0.64300  0.60690  0.83280  Biso   1.000  H
  C98      1.0000 0.76320  0.61640  0.71000  Biso   1.000  C
  H156     1.0000 0.78940  0.62210  0.62510  Biso   1.000  H
  H157     1.0000 0.74980  0.58100  0.71620  Biso   1.000  H
  H158     1.0000 0.79430  0.62540  0.78570  Biso   1.000  H
  C99      1.0000 0.68600  0.68800  0.60000  Biso   1.000  C
  H159     1.0000 0.72680  0.68840  0.53600  Biso   1.000  H
  H160     1.0000 0.68240  0.72110  0.64280  Biso   1.000  H
  H161     1.0000 0.64110  0.68100  0.55110  Biso   1.000  H
  N33      1.0000 0.69950  0.64630  0.71200  Biso   1.000  N
  O43      1.0000 0.58010  0.65590  0.77300  Biso   1.000  O
  C100     1.0000 0.75700  0.74300  0.80500  Biso   1.000  C
  H162     1.0000 0.79770  0.76200  0.83470  Biso   1.000  H
  C101     1.0000 0.74600  0.74400  0.56300  Biso   1.000  C
  H163     1.0000 0.77250  0.72690  0.48980  Biso   1.000  H
  H164     1.0000 0.75840  0.77920  0.56390  Biso   1.000  H
  H165     1.0000 0.69380  0.73960  0.54840  Biso   1.000  H
  C102     1.0000 0.77300  0.66200  0.70200  Biso   1.000  C
  H166     1.0000 0.80370  0.64920  0.62870  Biso   1.000  H
  H167     1.0000 0.72500  0.64670  0.69650  Biso   1.000  H
  H168     1.0000 0.79550  0.65390  0.78850  Biso   1.000  H
  N34      1.0000 0.76600  0.72200  0.68800  Biso   1.000  N
  O44      1.0000 0.70500  0.74200  0.88200  Biso   1.000  O
  C103     1.0000 0.64800  0.63250  0.79800  Biso   1.000  C
  H169     1.0000 0.67600  0.62920  0.87720  Biso   1.000  H
  C104     1.0000 0.65100  0.62000  0.55700  Biso   1.000  C
  H170     1.0000 0.67980  0.60020  0.49510  Biso   1.000  H
  H171     1.0000 0.65100  0.65540  0.52670  Biso   1.000  H
  H172     1.0000 0.60050  0.60810  0.55710  Biso   1.000  H
  C105     1.0000 0.75500  0.58900  0.71700  Biso   1.000  C
  H173     1.0000 0.77150  0.57280  0.63450  Biso   1.000  H
  H174     1.0000 0.74740  0.56400  0.78740  Biso   1.000  H
  H175     1.0000 0.79110  0.61350  0.74690  Biso   1.000  H
  N35      1.0000 0.67980  0.61730  0.68800  Biso   1.000  N
  O45      1.0000 0.58710  0.65060  0.81400  Biso   1.000  O
  N36      1.0000 0.80580  0.32270  0.66800  Biso   1.000  N
  H176     1.0000 0.84860  0.31730  0.63230  Biso   1.000  H
  H177     1.0000 0.77490  0.29790  0.67690  Biso   1.000  H
  C106     1.0000 0.83040  0.41490  0.70650  Biso   1.000  C
  C107     1.0000 0.78640  0.37200  0.71380  Biso   1.000  C
  C108     1.0000 0.71880  0.37500  0.78590  Biso   1.000  C
  H178     1.0000 0.68970  0.34590  0.79450  Biso   1.000  H
  C109     1.0000 0.69500  0.41970  0.84360  Biso   1.000  C
  C110     1.0000 0.74050  0.46290  0.83870  Biso   1.000  C
  H179     1.0000 0.72640  0.49330  0.88070  Biso   1.000  H
  C111     1.0000 0.80830  0.45880  0.76780  Biso   1.000  C
  H180     1.0000 0.83900  0.48730  0.76300  Biso   1.000  H
  N37      1.0000 0.68100  0.32700  0.81400  Biso   1.000  N
  H181     1.0000 0.64350  0.32610  0.86790  Biso   1.000  H
  H182     1.0000 0.69690  0.29900  0.77700  Biso   1.000  H
  H183     1.0000 0.80100  0.34170  0.67200  Biso   1.000  H
  N38      1.0000 0.72710  0.50780  0.91200  Biso   1.000  N
  H184     1.0000 0.68880  0.51010  0.96410  Biso   1.000  H
  H185     1.0000 0.75710  0.53310  0.90460  Biso   1.000  H
  C112     1.0000 0.98850  0.53150  0.88650  Biso   1.000  C
  C113     1.0000 0.04640  0.49610  0.88960  Biso   1.000  C
  H186     1.0000 0.07760  0.49360  0.81380  Biso   1.000  H
  C114     1.0000 0.94100  0.53510  0.99870  Biso   1.000  C
  N39      1.0000 0.87650  0.56690  0.00170  Biso   1.000  N
  H187     1.0000 0.84730  0.56610  0.07140  Biso   1.000  H
  H188     1.0000 0.86700  0.58690  0.93370  Biso   1.000  H
  H189     1.0000 0.90170  0.55810  0.99830  Biso   1.000  H
  C115     1.0000 0.90340  0.41410  0.62820  Biso   1.000  C
  O46      1.0000 0.93930  0.45490  0.62880  Biso   1.000  O
  O47      1.0000 0.92320  0.37310  0.57190  Biso   1.000  O
  C116     1.0000 0.62220  0.42290  0.92340  Biso   1.000  C
  O48      1.0000 0.59770  0.46620  0.94590  Biso   1.000  O
  O49      1.0000 0.59200  0.38130  0.95430  Biso   1.000  O
  C117     1.0000 0.98020  0.56470  0.76220  Biso   1.000  C
  O50      1.0000 0.01640  0.55500  0.65320  Biso   1.000  O
  O51      1.0000 0.94340  0.60640  0.76880  Biso   1.000  O
  Mg8      1.0000 0.00317  0.36925  0.42440  Biso   1.000  Mg
  C118     1.0000 0.86010  0.36480  0.27600  Biso   1.000  C
  H190     1.0000 0.85700  0.39310  0.33280  Biso   1.000  H
  C119     1.0000 0.73680  0.38360  0.21000  Biso   1.000  C
  H191     1.0000 0.71060  0.37790  0.12510  Biso   1.000  H
  H192     1.0000 0.75020  0.41900  0.21620  Biso   1.000  H
  H193     1.0000 0.70570  0.37460  0.28570  Biso   1.000  H
  C120     1.0000 0.81400  0.31200  0.10000  Biso   1.000  C
  H194     1.0000 0.77320  0.31160  0.03600  Biso   1.000  H
  H195     1.0000 0.81760  0.27890  0.14280  Biso   1.000  H
  H196     1.0000 0.85890  0.31900  0.05110  Biso   1.000  H
  N40      1.0000 0.80050  0.35370  0.21200  Biso   1.000  N
  O52      1.0000 0.91990  0.34410  0.27300  Biso   1.000  O
  C121     1.0000 0.74300  0.25700  0.30500  Biso   1.000  C
  H197     1.0000 0.70230  0.23800  0.33470  Biso   1.000  H
  C122     1.0000 0.75400  0.25600  0.06300  Biso   1.000  C
  H198     1.0000 0.72750  0.27310  0.98980  Biso   1.000  H
  H199     1.0000 0.74160  0.22080  0.06390  Biso   1.000  H
  H200     1.0000 0.80620  0.26040  0.04840  Biso   1.000  H
  C123     1.0000 0.72700  0.33800  0.20200  Biso   1.000  C
  H201     1.0000 0.69630  0.35080  0.12870  Biso   1.000  H
  H202     1.0000 0.77500  0.35330  0.19650  Biso   1.000  H
  H203     1.0000 0.70450  0.34610  0.28850  Biso   1.000  H
  N41      1.0000 0.73400  0.27800  0.18800  Biso   1.000  N
  O53      1.0000 0.79500  0.25800  0.38200  Biso   1.000  O
  C124     1.0000 0.85200  0.36750  0.29800  Biso   1.000  C
  H204     1.0000 0.82400  0.37080  0.37720  Biso   1.000  H
  C125     1.0000 0.84900  0.38000  0.05700  Biso   1.000  C
  H205     1.0000 0.82020  0.39980  0.99510  Biso   1.000  H
  H206     1.0000 0.84900  0.34460  0.02670  Biso   1.000  H
  H207     1.0000 0.89950  0.39190  0.05710  Biso   1.000  H
  C126     1.0000 0.74500  0.41100  0.21700  Biso   1.000  C
  H208     1.0000 0.72850  0.42720  0.13450  Biso   1.000  H
  H209     1.0000 0.75260  0.43600  0.28740  Biso   1.000  H
  H210     1.0000 0.70890  0.38650  0.24690  Biso   1.000  H
  N42      1.0000 0.82020  0.38270  0.18800  Biso   1.000  N
  O54      1.0000 0.91290  0.34940  0.31400  Biso   1.000  O
  N43      1.0000 0.30580  0.32270  0.83200  Biso   1.000  N
  H211     1.0000 0.34860  0.31730  0.86770  Biso   1.000  H
  H212     1.0000 0.27490  0.29790  0.82310  Biso   1.000  H
  C127     1.0000 0.33040  0.41490  0.79350  Biso   1.000  C
  C128     1.0000 0.28640  0.37200  0.78620  Biso   1.000  C
  C129     1.0000 0.21880  0.37500  0.71410  Biso   1.000  C
  H213     1.0000 0.18970  0.34590  0.70550  Biso   1.000  H
  C130     1.0000 0.19500  0.41970  0.65640  Biso   1.000  C
  C131     1.0000 0.24050  0.46290  0.66130  Biso   1.000  C
  H214     1.0000 0.22640  0.49330  0.61930  Biso   1.000  H
  C132     1.0000 0.30830  0.45880  0.73220  Biso   1.000  C
  H215     1.0000 0.33900  0.48730  0.73700  Biso   1.000  H
  N44      1.0000 0.18100  0.32700  0.68600  Biso   1.000  N
  H216     1.0000 0.14350  0.32610  0.63210  Biso   1.000  H
  H217     1.0000 0.19690  0.29900  0.72300  Biso   1.000  H
  H218     1.0000 0.30100  0.34170  0.82800  Biso   1.000  H
  N45      1.0000 0.22710  0.50780  0.58800  Biso   1.000  N
  H219     1.0000 0.18880  0.51010  0.53590  Biso   1.000  H
  H220     1.0000 0.25710  0.53310  0.59540  Biso   1.000  H
  C133     1.0000 0.48850  0.53150  0.61350  Biso   1.000  C
  C134     1.0000 0.54640  0.49610  0.61040  Biso   1.000  C
  H221     1.0000 0.57760  0.49360  0.68620  Biso   1.000  H
  C135     1.0000 0.44100  0.53510  0.50130  Biso   1.000  C
  N46      1.0000 0.37650  0.56690  0.49830  Biso   1.000  N
  H222     1.0000 0.34730  0.56610  0.42860  Biso   1.000  H
  H223     1.0000 0.36700  0.58690  0.56630  Biso   1.000  H
  H224     1.0000 0.40170  0.55810  0.50170  Biso   1.000  H
  C136     1.0000 0.40340  0.41410  0.87180  Biso   1.000  C
  O55      1.0000 0.43930  0.45490  0.87120  Biso   1.000  O
  O56      1.0000 0.42320  0.37310  0.92810  Biso   1.000  O
  C137     1.0000 0.12220  0.42290  0.57660  Biso   1.000  C
  O57      1.0000 0.09770  0.46620  0.55410  Biso   1.000  O
  O58      1.0000 0.09200  0.38130  0.54570  Biso   1.000  O
  C138     1.0000 0.48020  0.56470  0.73780  Biso   1.000  C
  O59      1.0000 0.51640  0.55500  0.84680  Biso   1.000  O
  O60      1.0000 0.44340  0.60640  0.73120  Biso   1.000  O
  Mg9      1.0000 0.50317  0.36925  0.07560  Biso   1.000  Mg
  C139     1.0000 0.36010  0.36480  0.22400  Biso   1.000  C
  H225     1.0000 0.35700  0.39310  0.16720  Biso   1.000  H
  C140     1.0000 0.23680  0.38360  0.29000  Biso   1.000  C
  H226     1.0000 0.21060  0.37790  0.37490  Biso   1.000  H
  H227     1.0000 0.25020  0.41900  0.28380  Biso   1.000  H
  H228     1.0000 0.20570  0.37460  0.21430  Biso   1.000  H
  C141     1.0000 0.31400  0.31200  0.40000  Biso   1.000  C
  H229     1.0000 0.27320  0.31160  0.46400  Biso   1.000  H
  H230     1.0000 0.31760  0.27890  0.35720  Biso   1.000  H
  H231     1.0000 0.35890  0.31900  0.44890  Biso   1.000  H
  N47      1.0000 0.30050  0.35370  0.28800  Biso   1.000  N
  O61      1.0000 0.41990  0.34410  0.22700  Biso   1.000  O
  C142     1.0000 0.24300  0.25700  0.19500  Biso   1.000  C
  H232     1.0000 0.20230  0.23800  0.16530  Biso   1.000  H
  C143     1.0000 0.25400  0.25600  0.43700  Biso   1.000  C
  H233     1.0000 0.22750  0.27310  0.51020  Biso   1.000  H
  H234     1.0000 0.24160  0.22080  0.43610  Biso   1.000  H
  H235     1.0000 0.30620  0.26040  0.45160  Biso   1.000  H
  C144     1.0000 0.22700  0.33800  0.29800  Biso   1.000  C
  H236     1.0000 0.19630  0.35080  0.37130  Biso   1.000  H
  H237     1.0000 0.27500  0.35330  0.30350  Biso   1.000  H
  H238     1.0000 0.20450  0.34610  0.21150  Biso   1.000  H
  N48      1.0000 0.23400  0.27800  0.31200  Biso   1.000  N
  O62      1.0000 0.29500  0.25800  0.11800  Biso   1.000  O
  C145     1.0000 0.35200  0.36750  0.20200  Biso   1.000  C
  H239     1.0000 0.32400  0.37080  0.12280  Biso   1.000  H
  C146     1.0000 0.34900  0.38000  0.44300  Biso   1.000  C
  H240     1.0000 0.32020  0.39980  0.50490  Biso   1.000  H
  H241     1.0000 0.34900  0.34460  0.47330  Biso   1.000  H
  H242     1.0000 0.39950  0.39190  0.44290  Biso   1.000  H
  C147     1.0000 0.24500  0.41100  0.28300  Biso   1.000  C
  H243     1.0000 0.22850  0.42720  0.36550  Biso   1.000  H
  H244     1.0000 0.25260  0.43600  0.21260  Biso   1.000  H
  H245     1.0000 0.20890  0.38650  0.25310  Biso   1.000  H
  N49      1.0000 0.32020  0.38270  0.31200  Biso   1.000  N
  O63      1.0000 0.41290  0.34940  0.18600  Biso   1.000  O
  N50      1.0000 0.19420  0.67730  0.33200  Biso   1.000  N
  H246     1.0000 0.15140  0.68270  0.36770  Biso   1.000  H
  H247     1.0000 0.22510  0.70210  0.32310  Biso   1.000  H
  C148     1.0000 0.16960  0.58510  0.29350  Biso   1.000  C
  C149     1.0000 0.21360  0.62800  0.28620  Biso   1.000  C
  C150     1.0000 0.28120  0.62500  0.21410  Biso   1.000  C
  H248     1.0000 0.31030  0.65410  0.20550  Biso   1.000  H
  C151     1.0000 0.30500  0.58030  0.15640  Biso   1.000  C
  C152     1.0000 0.25950  0.53710  0.16130  Biso   1.000  C
  H249     1.0000 0.27360  0.50670  0.11930  Biso   1.000  H
  C153     1.0000 0.19170  0.54120  0.23220  Biso   1.000  C
  H250     1.0000 0.16100  0.51270  0.23700  Biso   1.000  H
  N51      1.0000 0.31900  0.67300  0.18600  Biso   1.000  N
  H251     1.0000 0.35650  0.67390  0.13210  Biso   1.000  H
  H252     1.0000 0.30310  0.70100  0.22300  Biso   1.000  H
  H253     1.0000 0.19900  0.65830  0.32800  Biso   1.000  H
  N52      1.0000 0.27290  0.49220  0.08800  Biso   1.000  N
  H254     1.0000 0.31120  0.48990  0.03590  Biso   1.000  H
  H255     1.0000 0.24290  0.46690  0.09540  Biso   1.000  H
  C154     1.0000 0.01150  0.46850  0.11350  Biso   1.000  C
  C155     1.0000 0.95360  0.50390  0.11040  Biso   1.000  C
  H256     1.0000 0.92240  0.50640  0.18620  Biso   1.000  H
  C156     1.0000 0.05900  0.46490  0.00130  Biso   1.000  C
  N53      1.0000 0.12350  0.43310  0.99830  Biso   1.000  N
  H257     1.0000 0.15270  0.43390  0.92860  Biso   1.000  H
  H258     1.0000 0.13300  0.41310  0.06630  Biso   1.000  H
  H259     1.0000 0.09830  0.44190  0.00170  Biso   1.000  H
  C157     1.0000 0.09660  0.58590  0.37180  Biso   1.000  C
  O64      1.0000 0.06070  0.54510  0.37120  Biso   1.000  O
  O65      1.0000 0.07680  0.62690  0.42810  Biso   1.000  O
  C158     1.0000 0.37780  0.57710  0.07660  Biso   1.000  C
  O66      1.0000 0.40230  0.53380  0.05410  Biso   1.000  O
  O67      1.0000 0.40800  0.61870  0.04570  Biso   1.000  O
  C159     1.0000 0.01980  0.43530  0.23780  Biso   1.000  C
  O68      1.0000 0.98360  0.44500  0.34680  Biso   1.000  O
  O69      1.0000 0.05660  0.39360  0.23120  Biso   1.000  O
  Mg10     1.0000 0.99683  0.63075  0.57560  Biso   1.000  Mg
  C160     1.0000 0.13990  0.63520  0.72400  Biso   1.000  C
  H260     1.0000 0.14300  0.60690  0.66720  Biso   1.000  H
  C161     1.0000 0.26320  0.61640  0.79000  Biso   1.000  C
  H261     1.0000 0.28940  0.62210  0.87490  Biso   1.000  H
  H262     1.0000 0.24980  0.58100  0.78380  Biso   1.000  H
  H263     1.0000 0.29430  0.62540  0.71430  Biso   1.000  H
  C162     1.0000 0.18600  0.68800  0.90000  Biso   1.000  C
  H264     1.0000 0.22680  0.68840  0.96400  Biso   1.000  H
  H265     1.0000 0.18240  0.72110  0.85720  Biso   1.000  H
  H266     1.0000 0.14110  0.68100  0.94890  Biso   1.000  H
  N54      1.0000 0.19950  0.64630  0.78800  Biso   1.000  N
  O70      1.0000 0.08010  0.65590  0.72700  Biso   1.000  O
  C163     1.0000 0.25700  0.74300  0.69500  Biso   1.000  C
  H267     1.0000 0.29770  0.76200  0.66530  Biso   1.000  H
  C164     1.0000 0.24600  0.74400  0.93700  Biso   1.000  C
  H268     1.0000 0.27250  0.72690  0.01020  Biso   1.000  H
  H269     1.0000 0.25840  0.77920  0.93610  Biso   1.000  H
  H270     1.0000 0.19380  0.73960  0.95160  Biso   1.000  H
  C165     1.0000 0.27300  0.66200  0.79800  Biso   1.000  C
  H271     1.0000 0.30370  0.64920  0.87130  Biso   1.000  H
  H272     1.0000 0.22500  0.64670  0.80350  Biso   1.000  H
  H273     1.0000 0.29550  0.65390  0.71150  Biso   1.000  H
  N55      1.0000 0.26600  0.72200  0.81200  Biso   1.000  N
  O71      1.0000 0.20500  0.74200  0.61800  Biso   1.000  O
  C166     1.0000 0.14800  0.63250  0.70200  Biso   1.000  C
  H274     1.0000 0.17600  0.62920  0.62280  Biso   1.000  H
  C167     1.0000 0.15100  0.62000  0.94300  Biso   1.000  C
  H275     1.0000 0.17980  0.60020  0.00490  Biso   1.000  H
  H276     1.0000 0.15100  0.65540  0.97330  Biso   1.000  H
  H277     1.0000 0.10050  0.60810  0.94290  Biso   1.000  H
  C168     1.0000 0.25500  0.58900  0.78300  Biso   1.000  C
  H278     1.0000 0.27150  0.57280  0.86550  Biso   1.000  H
  H279     1.0000 0.24740  0.56400  0.71260  Biso   1.000  H
  H280     1.0000 0.29110  0.61350  0.75310  Biso   1.000  H
  N56      1.0000 0.17980  0.61730  0.81200  Biso   1.000  N
  O72      1.0000 0.08710  0.65060  0.68600  Biso   1.000  O
  Mg11     1.0000 0.50000  0.50000  0.00000  Biso   1.000  Mg
  Mg12     1.0000 0.00000  0.50000  0.50000  Biso   1.000  Mg
