data_image0
_cell_length_a       21.896
_cell_length_b       13.118
_cell_length_c       12.3002
_cell_angle_alpha    90
_cell_angle_beta     107.635
_cell_angle_gamma    90

_symmetry_space_group_name_H-M    "P 1"
_symmetry_int_tables_number       1

loop_
  _symmetry_equiv_pos_as_xyz
  'x, y, z'

loop_
  _atom_site_label
  _atom_site_occupancy
  _atom_site_fract_x
  _atom_site_fract_y
  _atom_site_fract_z
  _atom_site_thermal_displace_type
  _atom_site_B_iso_or_equiv
  _atom_site_type_symbol
  Cd1      1.0000 0.46169  0.02454  0.60786  Biso   1.000  Cd
  Cd2      1.0000 0.53831  0.02454  0.89214  Biso   1.000  Cd
  S1       1.0000 0.74263  0.52362  0.66620  Biso   1.000  S
  O1       1.0000 0.53147  0.91100  0.57960  Biso   1.000  O
  O2       1.0000 0.56881  0.91110  0.76970  Biso   1.000  O
  O3       1.0000 0.74968  0.51810  0.55310  Biso   1.000  O
  O4       1.0000 0.79930  0.53330  0.76200  Biso   1.000  O
  O5       1.0000 0.54629  0.13180  0.65540  Biso   1.000  O
  O6       1.0000 0.59528  0.14300  0.84310  Biso   1.000  O
  C1       1.0000 0.56740  0.87730  0.67400  Biso   1.000  C
  C2       1.0000 0.61140  0.78890  0.67190  Biso   1.000  C
  C3       1.0000 0.65860  0.76090  0.77050  Biso   1.000  C
  H1       1.0000 0.66310  0.79690  0.83760  Biso   1.000  H
  C4       1.0000 0.69910  0.68020  0.77060  Biso   1.000  C
  H2       1.0000 0.73100  0.66220  0.83700  Biso   1.000  H
  C5       1.0000 0.69140  0.62630  0.66980  Biso   1.000  C
  C6       1.0000 0.64320  0.65260  0.57200  Biso   1.000  C
  H3       1.0000 0.63770  0.61530  0.50540  Biso   1.000  H
  C7       1.0000 0.60340  0.73390  0.57250  Biso   1.000  C
  H4       1.0000 0.57130  0.75170  0.50630  Biso   1.000  H
  C8       1.0000 0.70030  0.41530  0.68580  Biso   1.000  C
  C9       1.0000 0.71080  0.37710  0.79570  Biso   1.000  C
  H5       1.0000 0.74140  0.40630  0.85740  Biso   1.000  H
  C10      1.0000 0.67490  0.29550  0.81070  Biso   1.000  C
  H6       1.0000 0.68200  0.26880  0.88350  Biso   1.000  H
  C11      1.0000 0.62870  0.25210  0.72040  Biso   1.000  C
  C12      1.0000 0.62050  0.28860  0.61140  Biso   1.000  C
  H7       1.0000 0.59040  0.25810  0.54980  Biso   1.000  H
  C13      1.0000 0.65590  0.36870  0.59290  Biso   1.000  C
  H8       1.0000 0.65050  0.39200  0.51920  Biso   1.000  H
  C14      1.0000 0.58660  0.16880  0.74100  Biso   1.000  C
  S2       1.0000 0.25737  0.52362  0.83380  Biso   1.000  S
  O7       1.0000 0.46853  0.91100  0.92040  Biso   1.000  O
  O8       1.0000 0.43119  0.91110  0.73030  Biso   1.000  O
  O9       1.0000 0.25032  0.51810  0.94690  Biso   1.000  O
  O10      1.0000 0.20070  0.53330  0.73800  Biso   1.000  O
  O11      1.0000 0.45371  0.13180  0.84460  Biso   1.000  O
  O12      1.0000 0.40472  0.14300  0.65690  Biso   1.000  O
  C15      1.0000 0.43260  0.87730  0.82600  Biso   1.000  C
  C16      1.0000 0.38860  0.78890  0.82810  Biso   1.000  C
  C17      1.0000 0.34140  0.76090  0.72950  Biso   1.000  C
  H9       1.0000 0.33690  0.79690  0.66240  Biso   1.000  H
  C18      1.0000 0.30090  0.68020  0.72940  Biso   1.000  C
  H10      1.0000 0.26900  0.66220  0.66300  Biso   1.000  H
  C19      1.0000 0.30860  0.62630  0.83020  Biso   1.000  C
  C20      1.0000 0.35680  0.65260  0.92800  Biso   1.000  C
  H11      1.0000 0.36230  0.61530  0.99460  Biso   1.000  H
  C21      1.0000 0.39660  0.73390  0.92750  Biso   1.000  C
  H12      1.0000 0.42870  0.75170  0.99370  Biso   1.000  H
  C22      1.0000 0.29970  0.41530  0.81420  Biso   1.000  C
  C23      1.0000 0.28920  0.37710  0.70430  Biso   1.000  C
  H13      1.0000 0.25860  0.40630  0.64260  Biso   1.000  H
  C24      1.0000 0.32510  0.29550  0.68930  Biso   1.000  C
  H14      1.0000 0.31800  0.26880  0.61650  Biso   1.000  H
  C25      1.0000 0.37130  0.25210  0.77960  Biso   1.000  C
  C26      1.0000 0.37950  0.28860  0.88860  Biso   1.000  C
  H15      1.0000 0.40960  0.25810  0.95020  Biso   1.000  H
  C27      1.0000 0.34410  0.36870  0.90710  Biso   1.000  C
  H16      1.0000 0.34950  0.39200  0.98080  Biso   1.000  H
  C28      1.0000 0.41340  0.16880  0.75900  Biso   1.000  C
  S3       1.0000 0.25737  0.47638  0.33380  Biso   1.000  S
  O13      1.0000 0.46853  0.08900  0.42040  Biso   1.000  O
  O14      1.0000 0.43119  0.08890  0.23030  Biso   1.000  O
  O15      1.0000 0.25032  0.48190  0.44690  Biso   1.000  O
  O16      1.0000 0.20070  0.46670  0.23800  Biso   1.000  O
  O17      1.0000 0.45371  0.86820  0.34460  Biso   1.000  O
  O18      1.0000 0.40472  0.85700  0.15690  Biso   1.000  O
  C29      1.0000 0.43260  0.12270  0.32600  Biso   1.000  C
  C30      1.0000 0.38860  0.21110  0.32810  Biso   1.000  C
  C31      1.0000 0.34140  0.23910  0.22950  Biso   1.000  C
  H17      1.0000 0.33690  0.20310  0.16240  Biso   1.000  H
  C32      1.0000 0.30090  0.31980  0.22940  Biso   1.000  C
  H18      1.0000 0.26900  0.33780  0.16300  Biso   1.000  H
  C33      1.0000 0.30860  0.37370  0.33020  Biso   1.000  C
  C34      1.0000 0.35680  0.34740  0.42800  Biso   1.000  C
  H19      1.0000 0.36230  0.38470  0.49460  Biso   1.000  H
  C35      1.0000 0.39660  0.26610  0.42750  Biso   1.000  C
  H20      1.0000 0.42870  0.24830  0.49370  Biso   1.000  H
  C36      1.0000 0.29970  0.58470  0.31420  Biso   1.000  C
  C37      1.0000 0.28920  0.62290  0.20430  Biso   1.000  C
  H21      1.0000 0.25860  0.59370  0.14260  Biso   1.000  H
  C38      1.0000 0.32510  0.70450  0.18930  Biso   1.000  C
  H22      1.0000 0.31800  0.73120  0.11650  Biso   1.000  H
  C39      1.0000 0.37130  0.74790  0.27960  Biso   1.000  C
  C40      1.0000 0.37950  0.71140  0.38860  Biso   1.000  C
  H23      1.0000 0.40960  0.74190  0.45020  Biso   1.000  H
  C41      1.0000 0.34410  0.63130  0.40710  Biso   1.000  C
  H24      1.0000 0.34950  0.60800  0.48080  Biso   1.000  H
  C42      1.0000 0.41340  0.83120  0.25900  Biso   1.000  C
  S4       1.0000 0.74263  0.47638  0.16620  Biso   1.000  S
  O19      1.0000 0.53147  0.08900  0.07960  Biso   1.000  O
  O20      1.0000 0.56881  0.08890  0.26970  Biso   1.000  O
  O21      1.0000 0.74968  0.48190  0.05310  Biso   1.000  O
  O22      1.0000 0.79930  0.46670  0.26200  Biso   1.000  O
  O23      1.0000 0.54629  0.86820  0.15540  Biso   1.000  O
  O24      1.0000 0.59528  0.85700  0.34310  Biso   1.000  O
  C43      1.0000 0.56740  0.12270  0.17400  Biso   1.000  C
  C44      1.0000 0.61140  0.21110  0.17190  Biso   1.000  C
  C45      1.0000 0.65860  0.23910  0.27050  Biso   1.000  C
  H25      1.0000 0.66310  0.20310  0.33760  Biso   1.000  H
  C46      1.0000 0.69910  0.31980  0.27060  Biso   1.000  C
  H26      1.0000 0.73100  0.33780  0.33700  Biso   1.000  H
  C47      1.0000 0.69140  0.37370  0.16980  Biso   1.000  C
  C48      1.0000 0.64320  0.34740  0.07200  Biso   1.000  C
  H27      1.0000 0.63770  0.38470  0.00540  Biso   1.000  H
  C49      1.0000 0.60340  0.26610  0.07250  Biso   1.000  C
  H28      1.0000 0.57130  0.24830  0.00630  Biso   1.000  H
  C50      1.0000 0.70030  0.58470  0.18580  Biso   1.000  C
  C51      1.0000 0.71080  0.62290  0.29570  Biso   1.000  C
  H29      1.0000 0.74140  0.59370  0.35740  Biso   1.000  H
  C52      1.0000 0.67490  0.70450  0.31070  Biso   1.000  C
  H30      1.0000 0.68200  0.73120  0.38350  Biso   1.000  H
  C53      1.0000 0.62870  0.74790  0.22040  Biso   1.000  C
  C54      1.0000 0.62050  0.71140  0.11140  Biso   1.000  C
  H31      1.0000 0.59040  0.74190  0.04980  Biso   1.000  H
  C55      1.0000 0.65590  0.63130  0.09290  Biso   1.000  C
  H32      1.0000 0.65050  0.60800  0.01920  Biso   1.000  H
  C56      1.0000 0.58660  0.83120  0.24100  Biso   1.000  C
  Cd3      1.0000 0.53831  0.97546  0.39214  Biso   1.000  Cd
  Cd4      1.0000 0.46169  0.97546  0.10786  Biso   1.000  Cd
  Cd5      1.0000 0.96169  0.52454  0.60786  Biso   1.000  Cd
  Cd6      1.0000 0.03831  0.52454  0.89214  Biso   1.000  Cd
  S5       1.0000 0.24263  0.02362  0.66620  Biso   1.000  S
  O25      1.0000 0.03147  0.41100  0.57960  Biso   1.000  O
  O26      1.0000 0.06881  0.41110  0.76970  Biso   1.000  O
  O27      1.0000 0.24968  0.01810  0.55310  Biso   1.000  O
  O28      1.0000 0.29930  0.03330  0.76200  Biso   1.000  O
  O29      1.0000 0.04629  0.63180  0.65540  Biso   1.000  O
  O30      1.0000 0.09528  0.64300  0.84310  Biso   1.000  O
  C57      1.0000 0.06740  0.37730  0.67400  Biso   1.000  C
  C58      1.0000 0.11140  0.28890  0.67190  Biso   1.000  C
  C59      1.0000 0.15860  0.26090  0.77050  Biso   1.000  C
  H33      1.0000 0.16310  0.29690  0.83760  Biso   1.000  H
  C60      1.0000 0.19910  0.18020  0.77060  Biso   1.000  C
  H34      1.0000 0.23100  0.16220  0.83700  Biso   1.000  H
  C61      1.0000 0.19140  0.12630  0.66980  Biso   1.000  C
  C62      1.0000 0.14320  0.15260  0.57200  Biso   1.000  C
  H35      1.0000 0.13770  0.11530  0.50540  Biso   1.000  H
  C63      1.0000 0.10340  0.23390  0.57250  Biso   1.000  C
  H36      1.0000 0.07130  0.25170  0.50630  Biso   1.000  H
  C64      1.0000 0.20030  0.91530  0.68580  Biso   1.000  C
  C65      1.0000 0.21080  0.87710  0.79570  Biso   1.000  C
  H37      1.0000 0.24140  0.90630  0.85740  Biso   1.000  H
  C66      1.0000 0.17490  0.79550  0.81070  Biso   1.000  C
  H38      1.0000 0.18200  0.76880  0.88350  Biso   1.000  H
  C67      1.0000 0.12870  0.75210  0.72040  Biso   1.000  C
  C68      1.0000 0.12050  0.78860  0.61140  Biso   1.000  C
  H39      1.0000 0.09040  0.75810  0.54980  Biso   1.000  H
  C69      1.0000 0.15590  0.86870  0.59290  Biso   1.000  C
  H40      1.0000 0.15050  0.89200  0.51920  Biso   1.000  H
  C70      1.0000 0.08660  0.66880  0.74100  Biso   1.000  C
  S6       1.0000 0.75737  0.02362  0.83380  Biso   1.000  S
  O31      1.0000 0.96853  0.41100  0.92040  Biso   1.000  O
  O32      1.0000 0.93119  0.41110  0.73030  Biso   1.000  O
  O33      1.0000 0.75032  0.01810  0.94690  Biso   1.000  O
  O34      1.0000 0.70070  0.03330  0.73800  Biso   1.000  O
  O35      1.0000 0.95371  0.63180  0.84460  Biso   1.000  O
  O36      1.0000 0.90472  0.64300  0.65690  Biso   1.000  O
  C71      1.0000 0.93260  0.37730  0.82600  Biso   1.000  C
  C72      1.0000 0.88860  0.28890  0.82810  Biso   1.000  C
  C73      1.0000 0.84140  0.26090  0.72950  Biso   1.000  C
  H41      1.0000 0.83690  0.29690  0.66240  Biso   1.000  H
  C74      1.0000 0.80090  0.18020  0.72940  Biso   1.000  C
  H42      1.0000 0.76900  0.16220  0.66300  Biso   1.000  H
  C75      1.0000 0.80860  0.12630  0.83020  Biso   1.000  C
  C76      1.0000 0.85680  0.15260  0.92800  Biso   1.000  C
  H43      1.0000 0.86230  0.11530  0.99460  Biso   1.000  H
  C77      1.0000 0.89660  0.23390  0.92750  Biso   1.000  C
  H44      1.0000 0.92870  0.25170  0.99370  Biso   1.000  H
  C78      1.0000 0.79970  0.91530  0.81420  Biso   1.000  C
  C79      1.0000 0.78920  0.87710  0.70430  Biso   1.000  C
  H45      1.0000 0.75860  0.90630  0.64260  Biso   1.000  H
  C80      1.0000 0.82510  0.79550  0.68930  Biso   1.000  C
  H46      1.0000 0.81800  0.76880  0.61650  Biso   1.000  H
  C81      1.0000 0.87130  0.75210  0.77960  Biso   1.000  C
  C82      1.0000 0.87950  0.78860  0.88860  Biso   1.000  C
  H47      1.0000 0.90960  0.75810  0.95020  Biso   1.000  H
  C83      1.0000 0.84410  0.86870  0.90710  Biso   1.000  C
  H48      1.0000 0.84950  0.89200  0.98080  Biso   1.000  H
  C84      1.0000 0.91340  0.66880  0.75900  Biso   1.000  C
  S7       1.0000 0.75737  0.97638  0.33380  Biso   1.000  S
  O37      1.0000 0.96853  0.58900  0.42040  Biso   1.000  O
  O38      1.0000 0.93119  0.58890  0.23030  Biso   1.000  O
  O39      1.0000 0.75032  0.98190  0.44690  Biso   1.000  O
  O40      1.0000 0.70070  0.96670  0.23800  Biso   1.000  O
  O41      1.0000 0.95371  0.36820  0.34460  Biso   1.000  O
  O42      1.0000 0.90472  0.35700  0.15690  Biso   1.000  O
  C85      1.0000 0.93260  0.62270  0.32600  Biso   1.000  C
  C86      1.0000 0.88860  0.71110  0.32810  Biso   1.000  C
  C87      1.0000 0.84140  0.73910  0.22950  Biso   1.000  C
  H49      1.0000 0.83690  0.70310  0.16240  Biso   1.000  H
  C88      1.0000 0.80090  0.81980  0.22940  Biso   1.000  C
  H50      1.0000 0.76900  0.83780  0.16300  Biso   1.000  H
  C89      1.0000 0.80860  0.87370  0.33020  Biso   1.000  C
  C90      1.0000 0.85680  0.84740  0.42800  Biso   1.000  C
  H51      1.0000 0.86230  0.88470  0.49460  Biso   1.000  H
  C91      1.0000 0.89660  0.76610  0.42750  Biso   1.000  C
  H52      1.0000 0.92870  0.74830  0.49370  Biso   1.000  H
  C92      1.0000 0.79970  0.08470  0.31420  Biso   1.000  C
  C93      1.0000 0.78920  0.12290  0.20430  Biso   1.000  C
  H53      1.0000 0.75860  0.09370  0.14260  Biso   1.000  H
  C94      1.0000 0.82510  0.20450  0.18930  Biso   1.000  C
  H54      1.0000 0.81800  0.23120  0.11650  Biso   1.000  H
  C95      1.0000 0.87130  0.24790  0.27960  Biso   1.000  C
  C96      1.0000 0.87950  0.21140  0.38860  Biso   1.000  C
  H55      1.0000 0.90960  0.24190  0.45020  Biso   1.000  H
  C97      1.0000 0.84410  0.13130  0.40710  Biso   1.000  C
  H56      1.0000 0.84950  0.10800  0.48080  Biso   1.000  H
  C98      1.0000 0.91340  0.33120  0.25900  Biso   1.000  C
  S8       1.0000 0.24263  0.97638  0.16620  Biso   1.000  S
  O43      1.0000 0.03147  0.58900  0.07960  Biso   1.000  O
  O44      1.0000 0.06881  0.58890  0.26970  Biso   1.000  O
  O45      1.0000 0.24968  0.98190  0.05310  Biso   1.000  O
  O46      1.0000 0.29930  0.96670  0.26200  Biso   1.000  O
  O47      1.0000 0.04629  0.36820  0.15540  Biso   1.000  O
  O48      1.0000 0.09528  0.35700  0.34310  Biso   1.000  O
  C99      1.0000 0.06740  0.62270  0.17400  Biso   1.000  C
  C100     1.0000 0.11140  0.71110  0.17190  Biso   1.000  C
  C101     1.0000 0.15860  0.73910  0.27050  Biso   1.000  C
  H57      1.0000 0.16310  0.70310  0.33760  Biso   1.000  H
  C102     1.0000 0.19910  0.81980  0.27060  Biso   1.000  C
  H58      1.0000 0.23100  0.83780  0.33700  Biso   1.000  H
  C103     1.0000 0.19140  0.87370  0.16980  Biso   1.000  C
  C104     1.0000 0.14320  0.84740  0.07200  Biso   1.000  C
  H59      1.0000 0.13770  0.88470  0.00540  Biso   1.000  H
  C105     1.0000 0.10340  0.76610  0.07250  Biso   1.000  C
  H60      1.0000 0.07130  0.74830  0.00630  Biso   1.000  H
  C106     1.0000 0.20030  0.08470  0.18580  Biso   1.000  C
  C107     1.0000 0.21080  0.12290  0.29570  Biso   1.000  C
  H61      1.0000 0.24140  0.09370  0.35740  Biso   1.000  H
  C108     1.0000 0.17490  0.20450  0.31070  Biso   1.000  C
  H62      1.0000 0.18200  0.23120  0.38350  Biso   1.000  H
  C109     1.0000 0.12870  0.24790  0.22040  Biso   1.000  C
  C110     1.0000 0.12050  0.21140  0.11140  Biso   1.000  C
  H63      1.0000 0.09040  0.24190  0.04980  Biso   1.000  H
  C111     1.0000 0.15590  0.13130  0.09290  Biso   1.000  C
  H64      1.0000 0.15050  0.10800  0.01920  Biso   1.000  H
  C112     1.0000 0.08660  0.33120  0.24100  Biso   1.000  C
  Cd7      1.0000 0.03831  0.47546  0.39214  Biso   1.000  Cd
  Cd8      1.0000 0.96169  0.47546  0.10786  Biso   1.000  Cd
