data_image0
_cell_length_a       14.111
_cell_length_b       15.3337
_cell_length_c       18.7087
_cell_angle_alpha    78.679
_cell_angle_beta     84.134
_cell_angle_gamma    71.745

_symmetry_space_group_name_H-M    "P 1"
_symmetry_int_tables_number       1

loop_
  _symmetry_equiv_pos_as_xyz
  'x, y, z'

loop_
  _atom_site_label
  _atom_site_occupancy
  _atom_site_fract_x
  _atom_site_fract_y
  _atom_site_fract_z
  _atom_site_thermal_displace_type
  _atom_site_B_iso_or_equiv
  _atom_site_type_symbol
  Co1      1.0000 0.92799  0.73256  0.29486  Biso   1.000  Co
  Co2      1.0000 0.56505  0.28228  0.84648  Biso   1.000  Co
  P1       1.0000 0.91665  0.90361  0.38784  Biso   1.000  P
  P2       1.0000 0.68984  0.11688  0.98119  Biso   1.000  P
  C1       1.0000 0.43600  0.42100  0.72760  Biso   1.000  C
  H1       1.0000 0.38420  0.40350  0.75760  Biso   1.000  H
  C2       1.0000 0.40950  0.48760  0.66730  Biso   1.000  C
  H2       1.0000 0.34110  0.51590  0.65660  Biso   1.000  H
  C3       1.0000 0.48390  0.51400  0.62120  Biso   1.000  C
  C4       1.0000 0.58260  0.46930  0.64070  Biso   1.000  C
  H3       1.0000 0.63600  0.48410  0.61090  Biso   1.000  H
  C5       1.0000 0.60230  0.40360  0.70340  Biso   1.000  C
  H4       1.0000 0.66990  0.37480  0.71610  Biso   1.000  H
  C6       1.0000 0.46040  0.58750  0.55560  Biso   1.000  C
  C7       1.0000 0.36300  0.63410  0.53560  Biso   1.000  C
  H5       1.0000 0.30890  0.61760  0.56320  Biso   1.000  H
  C8       1.0000 0.34490  0.70500  0.47520  Biso   1.000  C
  C9       1.0000 0.42730  0.72430  0.43570  Biso   1.000  C
  H6       1.0000 0.41820  0.77220  0.39400  Biso   1.000  H
  C10      1.0000 0.52290  0.67310  0.45770  Biso   1.000  C
  C11      1.0000 0.61610  0.68700  0.41860  Biso   1.000  C
  C12      1.0000 0.61570  0.75070  0.35420  Biso   1.000  C
  H7       1.0000 0.55440  0.78940  0.33380  Biso   1.000  H
  C13      1.0000 0.70530  0.75680  0.32060  Biso   1.000  C
  H8       1.0000 0.70370  0.79990  0.27630  Biso   1.000  H
  C14      1.0000 0.79420  0.64550  0.40770  Biso   1.000  C
  H9       1.0000 0.85660  0.60790  0.42700  Biso   1.000  H
  C15      1.0000 0.70840  0.63430  0.44500  Biso   1.000  C
  H10      1.0000 0.71260  0.59040  0.48900  Biso   1.000  H
  C16      1.0000 0.24080  0.75630  0.45400  Biso   1.000  C
  C17      1.0000 0.21730  0.78630  0.38120  Biso   1.000  C
  H11      1.0000 0.26870  0.77470  0.34420  Biso   1.000  H
  C18      1.0000 0.11920  0.83340  0.36200  Biso   1.000  C
  H12      1.0000 0.10420  0.85440  0.31200  Biso   1.000  H
  C19      1.0000 0.04340  0.84960  0.41540  Biso   1.000  C
  C20      1.0000 0.06630  0.81910  0.48870  Biso   1.000  C
  H13      1.0000 0.01460  0.82960  0.52570  Biso   1.000  H
  C21      1.0000 0.16400  0.77360  0.50790  Biso   1.000  C
  H14      1.0000 0.17910  0.75400  0.55790  Biso   1.000  H
  C22      1.0000 0.91070  0.01720  0.33690  Biso   1.000  C
  C23      1.0000 0.85150  0.05200  0.27700  Biso   1.000  C
  H15      1.0000 0.81520  0.01550  0.26330  Biso   1.000  H
  C24      1.0000 0.84480  0.13970  0.23670  Biso   1.000  C
  H16      1.0000 0.80600  0.16260  0.19460  Biso   1.000  H
  C25      1.0000 0.89590  0.19420  0.25860  Biso   1.000  C
  H17      1.0000 0.88660  0.25660  0.23430  Biso   1.000  H
  C26      1.0000 0.95830  0.15800  0.31430  Biso   1.000  C
  H18      1.0000 0.99550  0.19400  0.32720  Biso   1.000  H
  C27      1.0000 0.96850  0.06920  0.35250  Biso   1.000  C
  H19      1.0000 0.01540  0.04330  0.38980  Biso   1.000  H
  C28      1.0000 0.83980  0.91500  0.46990  Biso   1.000  C
  C29      1.0000 0.79890  0.84340  0.49940  Biso   1.000  C
  H20      1.0000 0.80690  0.79360  0.47380  Biso   1.000  H
  C30      1.0000 0.74620  0.84500  0.56670  Biso   1.000  C
  H21      1.0000 0.72000  0.79510  0.58730  Biso   1.000  H
  C31      1.0000 0.73160  0.91750  0.60370  Biso   1.000  C
  H22      1.0000 0.69540  0.91790  0.64940  Biso   1.000  H
  C32      1.0000 0.76940  0.98900  0.57410  Biso   1.000  C
  H23      1.0000 0.75820  0.03980  0.59910  Biso   1.000  H
  C33      1.0000 0.82380  0.98880  0.50830  Biso   1.000  C
  H24      1.0000 0.85050  0.03870  0.48910  Biso   1.000  H
  C34      1.0000 0.90030  0.57640  0.23080  Biso   1.000  C
  H25      1.0000 0.84250  0.58590  0.26260  Biso   1.000  H
  C35      1.0000 0.91630  0.51210  0.18530  Biso   1.000  C
  H26      1.0000 0.86960  0.47860  0.18640  Biso   1.000  H
  C36      1.0000 0.00010  0.49570  0.13780  Biso   1.000  C
  C37      1.0000 0.06520  0.54800  0.13970  Biso   1.000  C
  H27      1.0000 0.12350  0.53990  0.10830  Biso   1.000  H
  C38      1.0000 0.04520  0.61090  0.18680  Biso   1.000  C
  H28      1.0000 0.09110  0.64470  0.18740  Biso   1.000  H
  C39      1.0000 0.02070  0.42700  0.08950  Biso   1.000  C
  C40      1.0000 0.95290  0.38000  0.08300  Biso   1.000  C
  H29      1.0000 0.89000  0.39370  0.10900  Biso   1.000  H
  C41      1.0000 0.97750  0.31320  0.03850  Biso   1.000  C
  C42      1.0000 0.06950  0.29720  0.00030  Biso   1.000  C
  H30      1.0000 0.08870  0.25220  0.96900  Biso   1.000  H
  C43      1.0000 0.13310  0.34730  0.00840  Biso   1.000  C
  C44      1.0000 0.23160  0.33390  0.96840  Biso   1.000  C
  C45      1.0000 0.26620  0.27210  0.92060  Biso   1.000  C
  H31      1.0000 0.22640  0.23590  0.91180  Biso   1.000  H
  C46      1.0000 0.35810  0.26270  0.88570  Biso   1.000  C
  H32      1.0000 0.38040  0.21890  0.85350  Biso   1.000  H
  C47      1.0000 0.38530  0.37010  0.94160  Biso   1.000  C
  H33      1.0000 0.42710  0.40480  0.94990  Biso   1.000  H
  C48      1.0000 0.29470  0.38360  0.97920  Biso   1.000  C
  H34      1.0000 0.27520  0.42650  0.01220  Biso   1.000  H
  C49      1.0000 0.90830  0.26050  0.03110  Biso   1.000  C
  C50      1.0000 0.80620  0.30690  0.02710  Biso   1.000  C
  H35      1.0000 0.78090  0.37020  0.03350  Biso   1.000  H
  C51      1.0000 0.74190  0.26050  0.01400  Biso   1.000  C
  H36      1.0000 0.67250  0.29230  0.01080  Biso   1.000  H
  C52      1.0000 0.77790  0.16810  0.00550  Biso   1.000  C
  C53      1.0000 0.87840  0.12040  0.01320  Biso   1.000  C
  H37      1.0000 0.90290  0.05610  0.00980  Biso   1.000  H
  C54      1.0000 0.94310  0.16720  0.02580  Biso   1.000  C
  H38      1.0000 0.01210  0.13470  0.03100  Biso   1.000  H
  C55      1.0000 0.63600  0.06750  0.06470  Biso   1.000  C
  C56      1.0000 0.69400  0.02000  0.12320  Biso   1.000  C
  H39      1.0000 0.76410  0.00970  0.11900  Biso   1.000  H
  C57      1.0000 0.64990  0.98700  0.18840  Biso   1.000  C
  H40      1.0000 0.68960  0.95720  0.22940  Biso   1.000  H
  C58      1.0000 0.55160  0.99710  0.19380  Biso   1.000  C
  H41      1.0000 0.52250  0.97260  0.23810  Biso   1.000  H
  C59      1.0000 0.49410  0.04180  0.13660  Biso   1.000  C
  H42      1.0000 0.42470  0.04810  0.14060  Biso   1.000  H
  C60      1.0000 0.53590  0.07880  0.07170  Biso   1.000  C
  H43      1.0000 0.49460  0.11210  0.03210  Biso   1.000  H
  C61      1.0000 0.75750  0.02640  0.93180  Biso   1.000  C
  C62      1.0000 0.73310  0.94310  0.94050  Biso   1.000  C
  H44      1.0000 0.68610  0.93040  0.97800  Biso   1.000  H
  C63      1.0000 0.77690  0.87920  0.89500  Biso   1.000  C
  H45      1.0000 0.75860  0.82360  0.90030  Biso   1.000  H
  C64      1.0000 0.84690  0.89610  0.84200  Biso   1.000  C
  H46      1.0000 0.87690  0.85190  0.81080  Biso   1.000  H
  C65      1.0000 0.87440  0.97760  0.83350  Biso   1.000  C
  H47      1.0000 0.92380  0.98820  0.79730  Biso   1.000  H
  C66      1.0000 0.83080  0.04170  0.87690  Biso   1.000  C
  H48      1.0000 0.84930  0.09730  0.87060  Biso   1.000  H
  N1       1.0000 0.53050  0.37830  0.74770  Biso   1.000  N
  N2       1.0000 0.53940  0.60570  0.51740  Biso   1.000  N
  N3       1.0000 0.79450  0.70590  0.34640  Biso   1.000  N
  N4       1.0000 0.96330  0.62640  0.23200  Biso   1.000  N
  N5       1.0000 0.11040  0.41020  0.05270  Biso   1.000  N
  N6       1.0000 0.41830  0.31200  0.89470  Biso   1.000  N
  O1       1.0000 0.88260  0.84950  0.34344  Biso   1.000  O
  O2       1.0000 0.60750  0.18880  0.93870  Biso   1.000  O
  Co3      1.0000 0.07201  0.26744  0.70514  Biso   1.000  Co
  Co4      1.0000 0.43495  0.71772  0.15352  Biso   1.000  Co
  P3       1.0000 0.08335  0.09639  0.61216  Biso   1.000  P
  P4       1.0000 0.31016  0.88312  0.01881  Biso   1.000  P
  C67      1.0000 0.56400  0.57900  0.27240  Biso   1.000  C
  H49      1.0000 0.61580  0.59650  0.24240  Biso   1.000  H
  C68      1.0000 0.59050  0.51240  0.33270  Biso   1.000  C
  H50      1.0000 0.65890  0.48410  0.34340  Biso   1.000  H
  C69      1.0000 0.51610  0.48600  0.37880  Biso   1.000  C
  C70      1.0000 0.41740  0.53070  0.35930  Biso   1.000  C
  H51      1.0000 0.36400  0.51590  0.38910  Biso   1.000  H
  C71      1.0000 0.39770  0.59640  0.29660  Biso   1.000  C
  H52      1.0000 0.33010  0.62520  0.28390  Biso   1.000  H
  C72      1.0000 0.53960  0.41250  0.44440  Biso   1.000  C
  C73      1.0000 0.63700  0.36590  0.46440  Biso   1.000  C
  H53      1.0000 0.69110  0.38240  0.43680  Biso   1.000  H
  C74      1.0000 0.65510  0.29500  0.52480  Biso   1.000  C
  C75      1.0000 0.57270  0.27570  0.56430  Biso   1.000  C
  H54      1.0000 0.58180  0.22780  0.60600  Biso   1.000  H
  C76      1.0000 0.47710  0.32690  0.54230  Biso   1.000  C
  C77      1.0000 0.38390  0.31300  0.58140  Biso   1.000  C
  C78      1.0000 0.38430  0.24930  0.64580  Biso   1.000  C
  H55      1.0000 0.44560  0.21060  0.66620  Biso   1.000  H
  C79      1.0000 0.29470  0.24320  0.67940  Biso   1.000  C
  H56      1.0000 0.29630  0.20010  0.72370  Biso   1.000  H
  C80      1.0000 0.20580  0.35450  0.59230  Biso   1.000  C
  H57      1.0000 0.14340  0.39210  0.57300  Biso   1.000  H
  C81      1.0000 0.29160  0.36570  0.55500  Biso   1.000  C
  H58      1.0000 0.28740  0.40960  0.51100  Biso   1.000  H
  C82      1.0000 0.75920  0.24370  0.54600  Biso   1.000  C
  C83      1.0000 0.78270  0.21370  0.61880  Biso   1.000  C
  H59      1.0000 0.73130  0.22530  0.65580  Biso   1.000  H
  C84      1.0000 0.88080  0.16660  0.63800  Biso   1.000  C
  H60      1.0000 0.89580  0.14560  0.68800  Biso   1.000  H
  C85      1.0000 0.95660  0.15040  0.58460  Biso   1.000  C
  C86      1.0000 0.93370  0.18090  0.51130  Biso   1.000  C
  H61      1.0000 0.98540  0.17040  0.47430  Biso   1.000  H
  C87      1.0000 0.83600  0.22640  0.49210  Biso   1.000  C
  H62      1.0000 0.82090  0.24600  0.44210  Biso   1.000  H
  C88      1.0000 0.08930  0.98280  0.66310  Biso   1.000  C
  C89      1.0000 0.14850  0.94800  0.72300  Biso   1.000  C
  H63      1.0000 0.18480  0.98450  0.73670  Biso   1.000  H
  C90      1.0000 0.15520  0.86030  0.76330  Biso   1.000  C
  H64      1.0000 0.19400  0.83740  0.80540  Biso   1.000  H
  C91      1.0000 0.10410  0.80580  0.74140  Biso   1.000  C
  H65      1.0000 0.11340  0.74340  0.76570  Biso   1.000  H
  C92      1.0000 0.04170  0.84200  0.68570  Biso   1.000  C
  H66      1.0000 0.00450  0.80600  0.67280  Biso   1.000  H
  C93      1.0000 0.03150  0.93080  0.64750  Biso   1.000  C
  H67      1.0000 0.98460  0.95670  0.61020  Biso   1.000  H
  C94      1.0000 0.16020  0.08500  0.53010  Biso   1.000  C
  C95      1.0000 0.20110  0.15660  0.50060  Biso   1.000  C
  H68      1.0000 0.19310  0.20640  0.52620  Biso   1.000  H
  C96      1.0000 0.25380  0.15500  0.43330  Biso   1.000  C
  H69      1.0000 0.28000  0.20490  0.41270  Biso   1.000  H
  C97      1.0000 0.26840  0.08250  0.39630  Biso   1.000  C
  H70      1.0000 0.30460  0.08210  0.35060  Biso   1.000  H
  C98      1.0000 0.23060  0.01100  0.42590  Biso   1.000  C
  H71      1.0000 0.24180  0.96020  0.40090  Biso   1.000  H
  C99      1.0000 0.17620  0.01120  0.49170  Biso   1.000  C
  H72      1.0000 0.14950  0.96130  0.51090  Biso   1.000  H
  C100     1.0000 0.09970  0.42360  0.76920  Biso   1.000  C
  H73      1.0000 0.15750  0.41410  0.73740  Biso   1.000  H
  C101     1.0000 0.08370  0.48790  0.81470  Biso   1.000  C
  H74      1.0000 0.13040  0.52140  0.81360  Biso   1.000  H
  C102     1.0000 0.99990  0.50430  0.86220  Biso   1.000  C
  C103     1.0000 0.93480  0.45200  0.86030  Biso   1.000  C
  H75      1.0000 0.87650  0.46010  0.89170  Biso   1.000  H
  C104     1.0000 0.95480  0.38910  0.81320  Biso   1.000  C
  H76      1.0000 0.90890  0.35530  0.81260  Biso   1.000  H
  C105     1.0000 0.97930  0.57300  0.91050  Biso   1.000  C
  C106     1.0000 0.04710  0.62000  0.91700  Biso   1.000  C
  H77      1.0000 0.11000  0.60630  0.89100  Biso   1.000  H
  C107     1.0000 0.02250  0.68680  0.96150  Biso   1.000  C
  C108     1.0000 0.93050  0.70280  0.99970  Biso   1.000  C
  H78      1.0000 0.91130  0.74780  0.03100  Biso   1.000  H
  C109     1.0000 0.86690  0.65270  0.99160  Biso   1.000  C
  C110     1.0000 0.76840  0.66610  0.03160  Biso   1.000  C
  C111     1.0000 0.73380  0.72790  0.07940  Biso   1.000  C
  H79      1.0000 0.77360  0.76410  0.08820  Biso   1.000  H
  C112     1.0000 0.64190  0.73730  0.11430  Biso   1.000  C
  H80      1.0000 0.61960  0.78110  0.14650  Biso   1.000  H
  C113     1.0000 0.61470  0.62990  0.05840  Biso   1.000  C
  H81      1.0000 0.57290  0.59520  0.05010  Biso   1.000  H
  C114     1.0000 0.70530  0.61640  0.02080  Biso   1.000  C
  H82      1.0000 0.72480  0.57350  0.98780  Biso   1.000  H
  C115     1.0000 0.09170  0.73950  0.96890  Biso   1.000  C
  C116     1.0000 0.19380  0.69310  0.97290  Biso   1.000  C
  H83      1.0000 0.21910  0.62980  0.96650  Biso   1.000  H
  C117     1.0000 0.25810  0.73950  0.98600  Biso   1.000  C
  H84      1.0000 0.32750  0.70770  0.98920  Biso   1.000  H
  C118     1.0000 0.22210  0.83190  0.99450  Biso   1.000  C
  C119     1.0000 0.12160  0.87960  0.98680  Biso   1.000  C
  H85      1.0000 0.09710  0.94390  0.99020  Biso   1.000  H
  C120     1.0000 0.05690  0.83280  0.97420  Biso   1.000  C
  H86      1.0000 0.98790  0.86530  0.96900  Biso   1.000  H
  C121     1.0000 0.36400  0.93250  0.93530  Biso   1.000  C
  C122     1.0000 0.30600  0.98000  0.87680  Biso   1.000  C
  H87      1.0000 0.23590  0.99030  0.88100  Biso   1.000  H
  C123     1.0000 0.35010  0.01300  0.81160  Biso   1.000  C
  H88      1.0000 0.31040  0.04280  0.77060  Biso   1.000  H
  C124     1.0000 0.44840  0.00290  0.80620  Biso   1.000  C
  H89      1.0000 0.47750  0.02740  0.76190  Biso   1.000  H
  C125     1.0000 0.50590  0.95820  0.86340  Biso   1.000  C
  H90      1.0000 0.57530  0.95190  0.85940  Biso   1.000  H
  C126     1.0000 0.46410  0.92120  0.92830  Biso   1.000  C
  H91      1.0000 0.50540  0.88790  0.96790  Biso   1.000  H
  C127     1.0000 0.24250  0.97360  0.06820  Biso   1.000  C
  C128     1.0000 0.26690  0.05690  0.05950  Biso   1.000  C
  H92      1.0000 0.31390  0.06960  0.02200  Biso   1.000  H
  C129     1.0000 0.22310  0.12080  0.10500  Biso   1.000  C
  H93      1.0000 0.24140  0.17640  0.09970  Biso   1.000  H
  C130     1.0000 0.15310  0.10390  0.15800  Biso   1.000  C
  H94      1.0000 0.12310  0.14810  0.18920  Biso   1.000  H
  C131     1.0000 0.12560  0.02240  0.16650  Biso   1.000  C
  H95      1.0000 0.07620  0.01180  0.20270  Biso   1.000  H
  C132     1.0000 0.16920  0.95830  0.12310  Biso   1.000  C
  H96      1.0000 0.15070  0.90270  0.12940  Biso   1.000  H
  N7       1.0000 0.46950  0.62170  0.25230  Biso   1.000  N
  N8       1.0000 0.46060  0.39430  0.48260  Biso   1.000  N
  N9       1.0000 0.20550  0.29410  0.65360  Biso   1.000  N
  N10      1.0000 0.03670  0.37360  0.76800  Biso   1.000  N
  N11      1.0000 0.88960  0.58980  0.94730  Biso   1.000  N
  N12      1.0000 0.58170  0.68800  0.10530  Biso   1.000  N
  O3       1.0000 0.11740  0.15050  0.65656  Biso   1.000  O
  O4       1.0000 0.39250  0.81120  0.06130  Biso   1.000  O
