data_image0
_cell_length_a       21.692
_cell_length_b       7.4594
_cell_length_c       9.8769
_cell_angle_alpha    90
_cell_angle_beta     91.687
_cell_angle_gamma    90

_symmetry_space_group_name_H-M    "P 1"
_symmetry_int_tables_number       1

loop_
  _symmetry_equiv_pos_as_xyz
  'x, y, z'

loop_
  _atom_site_label
  _atom_site_occupancy
  _atom_site_fract_x
  _atom_site_fract_y
  _atom_site_fract_z
  _atom_site_thermal_displace_type
  _atom_site_B_iso_or_equiv
  _atom_site_type_symbol
  O1       1.0000 0.09766  0.03700  0.44910  Biso   1.000  O
  C1       1.0000 0.10217  0.37850  0.14690  Biso   1.000  C
  H1       1.0000 0.06660  0.41740  0.09680  Biso   1.000  H
  C2       1.0000 0.14850  0.49080  0.20580  Biso   1.000  C
  C3       1.0000 0.19336  0.37940  0.27130  Biso   1.000  C
  H2       1.0000 0.22950  0.41910  0.31900  Biso   1.000  H
  N1       1.0000 0.17470  0.19840  0.25280  Biso   1.000  N
  N2       1.0000 0.11840  0.19780  0.17590  Biso   1.000  N
  O2       1.0000 0.10400  0.75440  0.14430  Biso   1.000  O
  O3       1.0000 0.18950  0.76340  0.26000  Biso   1.000  O
  C4       1.0000 0.14720  0.69040  0.20250  Biso   1.000  C
  O4       1.0000 0.90234  0.03700  0.55090  Biso   1.000  O
  C5       1.0000 0.89783  0.37850  0.85310  Biso   1.000  C
  H3       1.0000 0.93340  0.41740  0.90320  Biso   1.000  H
  C6       1.0000 0.85150  0.49080  0.79420  Biso   1.000  C
  C7       1.0000 0.80664  0.37940  0.72870  Biso   1.000  C
  H4       1.0000 0.77050  0.41910  0.68100  Biso   1.000  H
  N3       1.0000 0.82530  0.19840  0.74720  Biso   1.000  N
  N4       1.0000 0.88160  0.19780  0.82410  Biso   1.000  N
  O5       1.0000 0.89600  0.75440  0.85570  Biso   1.000  O
  O6       1.0000 0.81050  0.76340  0.74000  Biso   1.000  O
  C8       1.0000 0.85280  0.69040  0.79750  Biso   1.000  C
  O7       1.0000 0.90234  0.96300  0.55090  Biso   1.000  O
  C9       1.0000 0.89783  0.62150  0.85310  Biso   1.000  C
  H5       1.0000 0.93340  0.58260  0.90320  Biso   1.000  H
  C10      1.0000 0.85150  0.50920  0.79420  Biso   1.000  C
  C11      1.0000 0.80664  0.62060  0.72870  Biso   1.000  C
  H6       1.0000 0.77050  0.58090  0.68100  Biso   1.000  H
  N5       1.0000 0.82530  0.80160  0.74720  Biso   1.000  N
  N6       1.0000 0.88160  0.80220  0.82410  Biso   1.000  N
  O8       1.0000 0.89600  0.24560  0.85570  Biso   1.000  O
  O9       1.0000 0.81050  0.23660  0.74000  Biso   1.000  O
  C12      1.0000 0.85280  0.30960  0.79750  Biso   1.000  C
  O10      1.0000 0.09766  0.96300  0.44910  Biso   1.000  O
  C13      1.0000 0.10217  0.62150  0.14690  Biso   1.000  C
  H7       1.0000 0.06660  0.58260  0.09680  Biso   1.000  H
  C14      1.0000 0.14850  0.50920  0.20580  Biso   1.000  C
  C15      1.0000 0.19336  0.62060  0.27130  Biso   1.000  C
  H8       1.0000 0.22950  0.58090  0.31900  Biso   1.000  H
  N7       1.0000 0.17470  0.80160  0.25280  Biso   1.000  N
  N8       1.0000 0.11840  0.80220  0.17590  Biso   1.000  N
  O11      1.0000 0.10400  0.24560  0.14430  Biso   1.000  O
  O12      1.0000 0.18950  0.23660  0.26000  Biso   1.000  O
  C16      1.0000 0.14720  0.30960  0.20250  Biso   1.000  C
  Zn1      1.0000 0.07113  0.00000  0.10750  Biso   1.000  Zn
  Zn2      1.0000 0.20001  0.00000  0.36329  Biso   1.000  Zn
  C17      1.0000 0.02990  0.00000  0.69780  Biso   1.000  C
  H9       1.0000 0.00100  0.00000  0.62350  Biso   1.000  H
  C18      1.0000 0.11520  0.00000  0.81880  Biso   1.000  C
  H10      1.0000 0.15760  0.00000  0.84560  Biso   1.000  H
  C19      1.0000 0.09350  0.00000  0.68650  Biso   1.000  C
  C20      1.0000 0.12700  0.00000  0.55840  Biso   1.000  C
  O13      1.0000 0.18528  0.00000  0.56180  Biso   1.000  O
  N9       1.0000 0.01502  0.00000  0.82740  Biso   1.000  N
  N10      1.0000 0.06889  0.00000  0.90440  Biso   1.000  N
  Zn3      1.0000 0.92887  0.00000  0.89250  Biso   1.000  Zn
  Zn4      1.0000 0.79999  0.00000  0.63671  Biso   1.000  Zn
  C21      1.0000 0.97010  0.00000  0.30220  Biso   1.000  C
  H11      1.0000 0.99900  0.00000  0.37650  Biso   1.000  H
  C22      1.0000 0.88480  0.00000  0.18120  Biso   1.000  C
  H12      1.0000 0.84240  0.00000  0.15440  Biso   1.000  H
  C23      1.0000 0.90650  0.00000  0.31350  Biso   1.000  C
  C24      1.0000 0.87300  0.00000  0.44160  Biso   1.000  C
  O14      1.0000 0.81472  0.00000  0.43820  Biso   1.000  O
  N11      1.0000 0.98498  0.00000  0.17260  Biso   1.000  N
  N12      1.0000 0.93111  0.00000  0.09560  Biso   1.000  N
  O15      1.0000 0.59766  0.53700  0.44910  Biso   1.000  O
  C25      1.0000 0.60217  0.87850  0.14690  Biso   1.000  C
  H13      1.0000 0.56660  0.91740  0.09680  Biso   1.000  H
  C26      1.0000 0.64850  0.99080  0.20580  Biso   1.000  C
  C27      1.0000 0.69336  0.87940  0.27130  Biso   1.000  C
  H14      1.0000 0.72950  0.91910  0.31900  Biso   1.000  H
  N13      1.0000 0.67470  0.69840  0.25280  Biso   1.000  N
  N14      1.0000 0.61840  0.69780  0.17590  Biso   1.000  N
  O16      1.0000 0.60400  0.25440  0.14430  Biso   1.000  O
  O17      1.0000 0.68950  0.26340  0.26000  Biso   1.000  O
  C28      1.0000 0.64720  0.19040  0.20250  Biso   1.000  C
  O18      1.0000 0.40234  0.53700  0.55090  Biso   1.000  O
  C29      1.0000 0.39783  0.87850  0.85310  Biso   1.000  C
  H15      1.0000 0.43340  0.91740  0.90320  Biso   1.000  H
  C30      1.0000 0.35150  0.99080  0.79420  Biso   1.000  C
  C31      1.0000 0.30664  0.87940  0.72870  Biso   1.000  C
  H16      1.0000 0.27050  0.91910  0.68100  Biso   1.000  H
  N15      1.0000 0.32530  0.69840  0.74720  Biso   1.000  N
  N16      1.0000 0.38160  0.69780  0.82410  Biso   1.000  N
  O19      1.0000 0.39600  0.25440  0.85570  Biso   1.000  O
  O20      1.0000 0.31050  0.26340  0.74000  Biso   1.000  O
  C32      1.0000 0.35280  0.19040  0.79750  Biso   1.000  C
  O21      1.0000 0.40234  0.46300  0.55090  Biso   1.000  O
  C33      1.0000 0.39783  0.12150  0.85310  Biso   1.000  C
  H17      1.0000 0.43340  0.08260  0.90320  Biso   1.000  H
  C34      1.0000 0.35150  0.00920  0.79420  Biso   1.000  C
  C35      1.0000 0.30664  0.12060  0.72870  Biso   1.000  C
  H18      1.0000 0.27050  0.08090  0.68100  Biso   1.000  H
  N17      1.0000 0.32530  0.30160  0.74720  Biso   1.000  N
  N18      1.0000 0.38160  0.30220  0.82410  Biso   1.000  N
  O22      1.0000 0.39600  0.74560  0.85570  Biso   1.000  O
  O23      1.0000 0.31050  0.73660  0.74000  Biso   1.000  O
  C36      1.0000 0.35280  0.80960  0.79750  Biso   1.000  C
  O24      1.0000 0.59766  0.46300  0.44910  Biso   1.000  O
  C37      1.0000 0.60217  0.12150  0.14690  Biso   1.000  C
  H19      1.0000 0.56660  0.08260  0.09680  Biso   1.000  H
  C38      1.0000 0.64850  0.00920  0.20580  Biso   1.000  C
  C39      1.0000 0.69336  0.12060  0.27130  Biso   1.000  C
  H20      1.0000 0.72950  0.08090  0.31900  Biso   1.000  H
  N19      1.0000 0.67470  0.30160  0.25280  Biso   1.000  N
  N20      1.0000 0.61840  0.30220  0.17590  Biso   1.000  N
  O25      1.0000 0.60400  0.74560  0.14430  Biso   1.000  O
  O26      1.0000 0.68950  0.73660  0.26000  Biso   1.000  O
  C40      1.0000 0.64720  0.80960  0.20250  Biso   1.000  C
  Zn5      1.0000 0.57113  0.50000  0.10750  Biso   1.000  Zn
  Zn6      1.0000 0.70001  0.50000  0.36329  Biso   1.000  Zn
  C41      1.0000 0.52990  0.50000  0.69780  Biso   1.000  C
  H21      1.0000 0.50100  0.50000  0.62350  Biso   1.000  H
  C42      1.0000 0.61520  0.50000  0.81880  Biso   1.000  C
  H22      1.0000 0.65760  0.50000  0.84560  Biso   1.000  H
  C43      1.0000 0.59350  0.50000  0.68650  Biso   1.000  C
  C44      1.0000 0.62700  0.50000  0.55840  Biso   1.000  C
  O27      1.0000 0.68528  0.50000  0.56180  Biso   1.000  O
  N21      1.0000 0.51502  0.50000  0.82740  Biso   1.000  N
  N22      1.0000 0.56889  0.50000  0.90440  Biso   1.000  N
  Zn7      1.0000 0.42887  0.50000  0.89250  Biso   1.000  Zn
  Zn8      1.0000 0.29999  0.50000  0.63671  Biso   1.000  Zn
  C45      1.0000 0.47010  0.50000  0.30220  Biso   1.000  C
  H23      1.0000 0.49900  0.50000  0.37650  Biso   1.000  H
  C46      1.0000 0.38480  0.50000  0.18120  Biso   1.000  C
  H24      1.0000 0.34240  0.50000  0.15440  Biso   1.000  H
  C47      1.0000 0.40650  0.50000  0.31350  Biso   1.000  C
  C48      1.0000 0.37300  0.50000  0.44160  Biso   1.000  C
  O28      1.0000 0.31472  0.50000  0.43820  Biso   1.000  O
  N23      1.0000 0.48498  0.50000  0.17260  Biso   1.000  N
  N24      1.0000 0.43111  0.50000  0.09560  Biso   1.000  N
