data_image0
_cell_length_a       10.0677
_cell_length_b       15.6039
_cell_length_c       20.1092
_cell_angle_alpha    78.1845
_cell_angle_beta     83.2542
_cell_angle_gamma    73.8005

_symmetry_space_group_name_H-M    "P 1"
_symmetry_int_tables_number       1

loop_
  _symmetry_equiv_pos_as_xyz
  'x, y, z'

loop_
  _atom_site_label
  _atom_site_occupancy
  _atom_site_fract_x
  _atom_site_fract_y
  _atom_site_fract_z
  _atom_site_thermal_displace_type
  _atom_site_B_iso_or_equiv
  _atom_site_type_symbol
  Zn1      1.0000 0.89907  0.17502  0.32824  Biso   1.000  Zn
  Zn2      1.0000 0.11820  0.35189  0.33788  Biso   1.000  Zn
  O1       1.0000 0.09550  0.07700  0.98641  Biso   1.000  O
  O2       1.0000 0.70890  0.21760  0.68040  Biso   1.000  O
  O3       1.0000 0.91240  0.41510  0.99495  Biso   1.000  O
  O4       1.0000 0.25760  0.24480  0.69104  Biso   1.000  O
  O5       1.0000 0.82850  0.31070  0.31485  Biso   1.000  O
  O6       1.0000 0.91430  0.41900  0.33653  Biso   1.000  O
  O7       1.0000 0.31580  0.36630  0.32756  Biso   1.000  O
  O8       1.0000 0.18110  0.50460  0.32676  Biso   1.000  O
  O9       1.0000 0.10220  0.11170  0.32153  Biso   1.000  O
  O10      1.0000 0.19060  0.21441  0.35071  Biso   1.000  O
  O11      1.0000 0.70480  0.15810  0.33323  Biso   1.000  O
  O12      1.0000 0.83860  0.02110  0.32455  Biso   1.000  O
  N1       1.0000 0.90970  0.18210  0.21819  Biso   1.000  N
  N2       1.0000 0.89200  0.17840  0.01108  Biso   1.000  N
  H1       1.0000 0.81730  0.21580  0.99270  Biso   1.000  H
  N3       1.0000 0.91630  0.12780  0.64843  Biso   1.000  N
  H2       1.0000 0.99320  0.09000  0.66420  Biso   1.000  H
  N4       1.0000 0.89880  0.15770  0.43670  Biso   1.000  N
  N5       1.0000 0.12180  0.36020  0.22891  Biso   1.000  N
  N6       1.0000 0.12500  0.32810  0.02588  Biso   1.000  N
  H3       1.0000 0.20130  0.29120  0.01150  Biso   1.000  H
  N7       1.0000 0.05610  0.34610  0.65630  Biso   1.000  N
  H4       1.0000 0.97790  0.38170  0.67020  Biso   1.000  H
  N8       1.0000 0.10000  0.34660  0.44568  Biso   1.000  N
  C1       1.0000 0.81220  0.24070  0.17960  Biso   1.000  C
  H5       1.0000 0.74400  0.28450  0.20050  Biso   1.000  H
  C2       1.0000 0.80450  0.24130  0.11180  Biso   1.000  C
  H6       1.0000 0.73230  0.28420  0.08700  Biso   1.000  H
  C3       1.0000 0.90450  0.17800  0.07970  Biso   1.000  C
  C4       1.0000 0.00680  0.11680  0.11870  Biso   1.000  C
  H7       1.0000 0.07680  0.07240  0.09930  Biso   1.000  H
  C5       1.0000 0.00410  0.12210  0.18700  Biso   1.000  C
  H8       1.0000 0.07460  0.08000  0.21340  Biso   1.000  H
  C6       1.0000 0.98370  0.12670  0.96930  Biso   1.000  C
  C7       1.0000 0.93750  0.13590  0.89950  Biso   1.000  C
  C8       1.0000 0.03920  0.11100  0.84890  Biso   1.000  C
  H9       1.0000 0.13340  0.08850  0.85980  Biso   1.000  H
  C9       1.0000 0.00520  0.11840  0.78280  Biso   1.000  C
  H10      1.0000 0.07610  0.10050  0.74900  Biso   1.000  H
  C10      1.0000 0.86790  0.15200  0.76550  Biso   1.000  C
  C11      1.0000 0.76580  0.17500  0.81640  Biso   1.000  C
  H11      1.0000 0.67160  0.19670  0.80550  Biso   1.000  H
  C12      1.0000 0.79890  0.16700  0.88300  Biso   1.000  C
  H12      1.0000 0.72760  0.18260  0.91720  Biso   1.000  H
  C13      1.0000 0.82250  0.16900  0.69450  Biso   1.000  C
  C14      1.0000 0.00910  0.10680  0.47080  Biso   1.000  C
  H13      1.0000 0.08750  0.07570  0.44590  Biso   1.000  H
  C15      1.0000 0.01450  0.09720  0.54020  Biso   1.000  C
  H14      1.0000 0.09590  0.06100  0.56170  Biso   1.000  H
  C16      1.0000 0.90210  0.13990  0.57850  Biso   1.000  C
  C17      1.0000 0.78470  0.19140  0.54360  Biso   1.000  C
  H15      1.0000 0.70370  0.22180  0.56730  Biso   1.000  H
  C18      1.0000 0.78960  0.19700  0.47420  Biso   1.000  C
  H16      1.0000 0.70890  0.23140  0.45130  Biso   1.000  H
  C19      1.0000 0.01830  0.40890  0.18950  Biso   1.000  C
  H17      1.0000 0.94390  0.45030  0.20920  Biso   1.000  H
  C20      1.0000 0.01160  0.40320  0.12230  Biso   1.000  C
  H18      1.0000 0.93540  0.43970  0.09700  Biso   1.000  H
  C21      1.0000 0.11890  0.34300  0.09310  Biso   1.000  C
  C22      1.0000 0.23070  0.29310  0.13210  Biso   1.000  C
  H19      1.0000 0.30750  0.25250  0.11310  Biso   1.000  H
  C23      1.0000 0.22740  0.30380  0.19920  Biso   1.000  C
  H20      1.0000 0.30350  0.26950  0.22540  Biso   1.000  H
  C24      1.0000 0.02340  0.36560  0.98060  Biso   1.000  C
  C25      1.0000 0.05950  0.34390  0.91030  Biso   1.000  C
  C26      1.0000 0.19060  0.29730  0.88700  Biso   1.000  C
  H21      1.0000 0.26350  0.27460  0.91720  Biso   1.000  H
  C27      1.0000 0.21450  0.28420  0.82040  Biso   1.000  C
  H22      1.0000 0.30440  0.25290  0.80500  Biso   1.000  H
  C28      1.0000 0.10960  0.31580  0.77540  Biso   1.000  C
  C29      1.0000 0.97750  0.36050  0.79880  Biso   1.000  C
  H23      1.0000 0.90430  0.38160  0.76880  Biso   1.000  H
  C30      1.0000 0.95300  0.37410  0.86520  Biso   1.000  C
  H24      1.0000 0.86250  0.40430  0.88070  Biso   1.000  H
  C31      1.0000 0.14830  0.29830  0.70440  Biso   1.000  C
  C32      1.0000 0.97580  0.36250  0.48100  Biso   1.000  C
  H25      1.0000 0.89520  0.37450  0.45670  Biso   1.000  H
  C33      1.0000 0.95800  0.36260  0.55040  Biso   1.000  C
  H26      1.0000 0.86800  0.37580  0.57260  Biso   1.000  H
  C34      1.0000 0.00780  0.41010  0.47380  Biso   1.000  C
  H27      1.0000 0.94840  0.45760  0.44490  Biso   1.000  H
  C35      1.0000 0.99340  0.41090  0.54220  Biso   1.000  C
  H28      1.0000 0.92590  0.45860  0.55940  Biso   1.000  H
  C36      1.0000 0.07690  0.34250  0.58680  Biso   1.000  C
  C37      1.0000 0.20340  0.33020  0.55090  Biso   1.000  C
  H29      1.0000 0.28560  0.32000  0.57350  Biso   1.000  H
  C38      1.0000 0.20990  0.33270  0.48120  Biso   1.000  C
  H30      1.0000 0.29850  0.32390  0.45740  Biso   1.000  H
  C39      1.0000 0.17620  0.27390  0.55760  Biso   1.000  C
  H31      1.0000 0.23590  0.22540  0.58550  Biso   1.000  H
  C40      1.0000 0.18490  0.27870  0.48750  Biso   1.000  C
  H32      1.0000 0.25240  0.23320  0.46800  Biso   1.000  H
  C41      1.0000 0.34480  0.07880  0.32440  Biso   1.000  C
  C42      1.0000 0.46220  0.10720  0.32776  Biso   1.000  C
  H33      1.0000 0.45360  0.16750  0.33360  Biso   1.000  H
  C43      1.0000 0.59350  0.04670  0.32250  Biso   1.000  C
  C44      1.0000 0.60540  0.95830  0.31480  Biso   1.000  C
  H34      1.0000 0.69460  0.91720  0.31200  Biso   1.000  H
  C45      1.0000 0.48820  0.92960  0.31110  Biso   1.000  C
  H35      1.0000 0.49680  0.86910  0.30570  Biso   1.000  H
  C46      1.0000 0.35780  0.99020  0.31550  Biso   1.000  C
  H36      1.0000 0.27720  0.97130  0.31240  Biso   1.000  H
  C47      1.0000 0.20160  0.14110  0.33206  Biso   1.000  C
  C48      1.0000 0.72230  0.07600  0.32700  Biso   1.000  C
  C49      1.0000 0.67470  0.45380  0.32150  Biso   1.000  C
  C50      1.0000 0.55750  0.42190  0.32213  Biso   1.000  C
  H37      1.0000 0.56670  0.35910  0.32400  Biso   1.000  H
  C51      1.0000 0.42670  0.48370  0.32000  Biso   1.000  C
  C52      1.0000 0.41430  0.57580  0.31630  Biso   1.000  C
  H38      1.0000 0.32520  0.61750  0.31450  Biso   1.000  H
  C53      1.0000 0.53050  0.60710  0.31530  Biso   1.000  C
  H39      1.0000 0.52180  0.67000  0.31210  Biso   1.000  H
  C54      1.0000 0.66010  0.54520  0.31900  Biso   1.000  C
  H40      1.0000 0.74000  0.56600  0.31980  Biso   1.000  H
  C55      1.0000 0.81640  0.38890  0.32514  Biso   1.000  C
  C56      1.0000 0.29880  0.45010  0.32490  Biso   1.000  C
  Zn3      1.0000 0.10093  0.82498  0.67176  Biso   1.000  Zn
  Zn4      1.0000 0.88180  0.64811  0.66212  Biso   1.000  Zn
  O13      1.0000 0.90450  0.92300  0.01359  Biso   1.000  O
  O14      1.0000 0.29110  0.78240  0.31960  Biso   1.000  O
  O15      1.0000 0.08760  0.58490  0.00505  Biso   1.000  O
  O16      1.0000 0.74240  0.75520  0.30896  Biso   1.000  O
  O17      1.0000 0.17150  0.68930  0.68515  Biso   1.000  O
  O18      1.0000 0.08570  0.58100  0.66347  Biso   1.000  O
  O19      1.0000 0.68420  0.63370  0.67244  Biso   1.000  O
  O20      1.0000 0.81890  0.49540  0.67324  Biso   1.000  O
  O21      1.0000 0.89780  0.88830  0.67847  Biso   1.000  O
  O22      1.0000 0.80940  0.78559  0.64929  Biso   1.000  O
  O23      1.0000 0.29520  0.84190  0.66677  Biso   1.000  O
  O24      1.0000 0.16140  0.97890  0.67545  Biso   1.000  O
  N9       1.0000 0.09030  0.81790  0.78181  Biso   1.000  N
  N10      1.0000 0.10800  0.82160  0.98892  Biso   1.000  N
  H41      1.0000 0.18270  0.78420  0.00730  Biso   1.000  H
  N11      1.0000 0.08370  0.87220  0.35157  Biso   1.000  N
  H42      1.0000 0.00680  0.91000  0.33580  Biso   1.000  H
  N12      1.0000 0.10120  0.84230  0.56330  Biso   1.000  N
  N13      1.0000 0.87820  0.63980  0.77109  Biso   1.000  N
  N14      1.0000 0.87500  0.67190  0.97412  Biso   1.000  N
  H43      1.0000 0.79870  0.70880  0.98850  Biso   1.000  H
  N15      1.0000 0.94390  0.65390  0.34370  Biso   1.000  N
  H44      1.0000 0.02210  0.61830  0.32980  Biso   1.000  H
  N16      1.0000 0.90000  0.65340  0.55432  Biso   1.000  N
  C57      1.0000 0.18780  0.75930  0.82040  Biso   1.000  C
  H45      1.0000 0.25600  0.71550  0.79950  Biso   1.000  H
  C58      1.0000 0.19550  0.75870  0.88820  Biso   1.000  C
  H46      1.0000 0.26770  0.71580  0.91300  Biso   1.000  H
  C59      1.0000 0.09550  0.82200  0.92030  Biso   1.000  C
  C60      1.0000 0.99320  0.88320  0.88130  Biso   1.000  C
  H47      1.0000 0.92320  0.92760  0.90070  Biso   1.000  H
  C61      1.0000 0.99590  0.87790  0.81300  Biso   1.000  C
  H48      1.0000 0.92540  0.92000  0.78660  Biso   1.000  H
  C62      1.0000 0.01630  0.87330  0.03070  Biso   1.000  C
  C63      1.0000 0.06250  0.86410  0.10050  Biso   1.000  C
  C64      1.0000 0.96080  0.88900  0.15110  Biso   1.000  C
  H49      1.0000 0.86660  0.91150  0.14020  Biso   1.000  H
  C65      1.0000 0.99480  0.88160  0.21720  Biso   1.000  C
  H50      1.0000 0.92390  0.89950  0.25100  Biso   1.000  H
  C66      1.0000 0.13210  0.84800  0.23450  Biso   1.000  C
  C67      1.0000 0.23420  0.82500  0.18360  Biso   1.000  C
  H51      1.0000 0.32840  0.80330  0.19450  Biso   1.000  H
  C68      1.0000 0.20110  0.83300  0.11700  Biso   1.000  C
  H52      1.0000 0.27240  0.81740  0.08280  Biso   1.000  H
  C69      1.0000 0.17750  0.83100  0.30550  Biso   1.000  C
  C70      1.0000 0.99090  0.89320  0.52920  Biso   1.000  C
  H53      1.0000 0.91250  0.92430  0.55410  Biso   1.000  H
  C71      1.0000 0.98550  0.90280  0.45980  Biso   1.000  C
  H54      1.0000 0.90410  0.93900  0.43830  Biso   1.000  H
  C72      1.0000 0.09790  0.86010  0.42150  Biso   1.000  C
  C73      1.0000 0.21530  0.80860  0.45640  Biso   1.000  C
  H55      1.0000 0.29630  0.77820  0.43270  Biso   1.000  H
  C74      1.0000 0.21040  0.80300  0.52580  Biso   1.000  C
  H56      1.0000 0.29110  0.76860  0.54870  Biso   1.000  H
  C75      1.0000 0.98170  0.59110  0.81050  Biso   1.000  C
  H57      1.0000 0.05610  0.54970  0.79080  Biso   1.000  H
  C76      1.0000 0.98840  0.59680  0.87770  Biso   1.000  C
  H58      1.0000 0.06460  0.56030  0.90300  Biso   1.000  H
  C77      1.0000 0.88110  0.65700  0.90690  Biso   1.000  C
  C78      1.0000 0.76930  0.70690  0.86790  Biso   1.000  C
  H59      1.0000 0.69250  0.74750  0.88690  Biso   1.000  H
  C79      1.0000 0.77260  0.69620  0.80080  Biso   1.000  C
  H60      1.0000 0.69650  0.73050  0.77460  Biso   1.000  H
  C80      1.0000 0.97660  0.63440  0.01940  Biso   1.000  C
  C81      1.0000 0.94050  0.65610  0.08970  Biso   1.000  C
  C82      1.0000 0.80940  0.70270  0.11300  Biso   1.000  C
  H61      1.0000 0.73650  0.72540  0.08280  Biso   1.000  H
  C83      1.0000 0.78550  0.71580  0.17960  Biso   1.000  C
  H62      1.0000 0.69560  0.74710  0.19500  Biso   1.000  H
  C84      1.0000 0.89040  0.68420  0.22460  Biso   1.000  C
  C85      1.0000 0.02250  0.63950  0.20120  Biso   1.000  C
  H63      1.0000 0.09570  0.61840  0.23120  Biso   1.000  H
  C86      1.0000 0.04700  0.62590  0.13480  Biso   1.000  C
  H64      1.0000 0.13750  0.59570  0.11930  Biso   1.000  H
  C87      1.0000 0.85170  0.70170  0.29560  Biso   1.000  C
  C88      1.0000 0.02420  0.63750  0.51900  Biso   1.000  C
  H65      1.0000 0.10480  0.62550  0.54330  Biso   1.000  H
  C89      1.0000 0.04200  0.63740  0.44960  Biso   1.000  C
  H66      1.0000 0.13200  0.62420  0.42740  Biso   1.000  H
  C90      1.0000 0.99220  0.58990  0.52620  Biso   1.000  C
  H67      1.0000 0.05160  0.54240  0.55510  Biso   1.000  H
  C91      1.0000 0.00660  0.58910  0.45780  Biso   1.000  C
  H68      1.0000 0.07410  0.54140  0.44060  Biso   1.000  H
  C92      1.0000 0.92310  0.65750  0.41320  Biso   1.000  C
  C93      1.0000 0.79660  0.66980  0.44910  Biso   1.000  C
  H69      1.0000 0.71440  0.68000  0.42650  Biso   1.000  H
  C94      1.0000 0.79010  0.66730  0.51880  Biso   1.000  C
  H70      1.0000 0.70150  0.67610  0.54260  Biso   1.000  H
  C95      1.0000 0.82380  0.72610  0.44240  Biso   1.000  C
  H71      1.0000 0.76410  0.77460  0.41450  Biso   1.000  H
  C96      1.0000 0.81510  0.72130  0.51250  Biso   1.000  C
  H72      1.0000 0.74760  0.76680  0.53200  Biso   1.000  H
  C97      1.0000 0.65520  0.92120  0.67560  Biso   1.000  C
  C98      1.0000 0.53780  0.89280  0.67224  Biso   1.000  C
  H73      1.0000 0.54640  0.83250  0.66640  Biso   1.000  H
  C99      1.0000 0.40650  0.95330  0.67750  Biso   1.000  C
  C100     1.0000 0.39460  0.04170  0.68520  Biso   1.000  C
  H74      1.0000 0.30540  0.08280  0.68800  Biso   1.000  H
  C101     1.0000 0.51180  0.07040  0.68890  Biso   1.000  C
  H75      1.0000 0.50320  0.13090  0.69430  Biso   1.000  H
  C102     1.0000 0.64220  0.00980  0.68450  Biso   1.000  C
  H76      1.0000 0.72280  0.02870  0.68760  Biso   1.000  H
  C103     1.0000 0.79840  0.85890  0.66794  Biso   1.000  C
  C104     1.0000 0.27770  0.92400  0.67300  Biso   1.000  C
  C105     1.0000 0.32530  0.54620  0.67850  Biso   1.000  C
  C106     1.0000 0.44250  0.57810  0.67787  Biso   1.000  C
  H77      1.0000 0.43330  0.64090  0.67600  Biso   1.000  H
  C107     1.0000 0.57330  0.51630  0.68000  Biso   1.000  C
  C108     1.0000 0.58570  0.42420  0.68370  Biso   1.000  C
  H78      1.0000 0.67480  0.38250  0.68550  Biso   1.000  H
  C109     1.0000 0.46950  0.39290  0.68470  Biso   1.000  C
  H79      1.0000 0.47820  0.33000  0.68790  Biso   1.000  H
  C110     1.0000 0.33990  0.45480  0.68100  Biso   1.000  C
  H80      1.0000 0.26000  0.43400  0.68020  Biso   1.000  H
  C111     1.0000 0.18360  0.61110  0.67486  Biso   1.000  C
  C112     1.0000 0.70120  0.54990  0.67510  Biso   1.000  C
