data_image0
_cell_length_a       9.3725
_cell_length_b       14.7643
_cell_length_c       14.7153
_cell_angle_alpha    90
_cell_angle_beta     101.058
_cell_angle_gamma    90

_symmetry_space_group_name_H-M    "P 1"
_symmetry_int_tables_number       1

loop_
  _symmetry_equiv_pos_as_xyz
  'x, y, z'

loop_
  _atom_site_label
  _atom_site_occupancy
  _atom_site_fract_x
  _atom_site_fract_y
  _atom_site_fract_z
  _atom_site_thermal_displace_type
  _atom_site_B_iso_or_equiv
  _atom_site_type_symbol
  Zn1      1.0000 0.01743  0.10873  0.22316  Biso   1.000  Zn
  O1       1.0000 0.15150  0.13661  0.34495  Biso   1.000  O
  O2       1.0000 0.20350  0.25974  0.26981  Biso   1.000  O
  O3       1.0000 0.08180  0.00248  0.74799  Biso   1.000  O
  O4       1.0000 0.15730  0.02713  0.89930  Biso   1.000  O
  N1       1.0000 0.43760  0.32650  0.59660  Biso   1.000  N
  N2       1.0000 0.37240  0.28800  0.75890  Biso   1.000  N
  C1       1.0000 0.20990  0.21390  0.34050  Biso   1.000  C
  C2       1.0000 0.29390  0.25130  0.43090  Biso   1.000  C
  C3       1.0000 0.39370  0.32040  0.43160  Biso   1.000  C
  H1       1.0000 0.41410  0.34320  0.37510  Biso   1.000  H
  C4       1.0000 0.46360  0.35610  0.51530  Biso   1.000  C
  H2       1.0000 0.53250  0.40330  0.51510  Biso   1.000  H
  C5       1.0000 0.26720  0.22030  0.51530  Biso   1.000  C
  H3       1.0000 0.19920  0.17290  0.51700  Biso   1.000  H
  C6       1.0000 0.34050  0.25900  0.59720  Biso   1.000  C
  C7       1.0000 0.31410  0.23200  0.68970  Biso   1.000  C
  C8       1.0000 0.23770  0.15430  0.70530  Biso   1.000  C
  H4       1.0000 0.19770  0.11560  0.65530  Biso   1.000  H
  C9       1.0000 0.22060  0.13390  0.79480  Biso   1.000  C
  C10      1.0000 0.27980  0.19340  0.86560  Biso   1.000  C
  H5       1.0000 0.26900  0.18210  0.92750  Biso   1.000  H
  C11      1.0000 0.35390  0.26850  0.84500  Biso   1.000  C
  H6       1.0000 0.39390  0.30850  0.89390  Biso   1.000  H
  C12      1.0000 0.14750  0.04790  0.81770  Biso   1.000  C
  Zn2      1.0000 0.48257  0.60873  0.27684  Biso   1.000  Zn
  O5       1.0000 0.34850  0.63661  0.15505  Biso   1.000  O
  O6       1.0000 0.29650  0.75974  0.23019  Biso   1.000  O
  O7       1.0000 0.41820  0.50248  0.75201  Biso   1.000  O
  O8       1.0000 0.34270  0.52713  0.60070  Biso   1.000  O
  N3       1.0000 0.06240  0.82650  0.90340  Biso   1.000  N
  N4       1.0000 0.12760  0.78800  0.74110  Biso   1.000  N
  C13      1.0000 0.29010  0.71390  0.15950  Biso   1.000  C
  C14      1.0000 0.20610  0.75130  0.06910  Biso   1.000  C
  C15      1.0000 0.10630  0.82040  0.06840  Biso   1.000  C
  H7       1.0000 0.08590  0.84320  0.12490  Biso   1.000  H
  C16      1.0000 0.03640  0.85610  0.98470  Biso   1.000  C
  H8       1.0000 0.96750  0.90330  0.98490  Biso   1.000  H
  C17      1.0000 0.23280  0.72030  0.98470  Biso   1.000  C
  H9       1.0000 0.30080  0.67290  0.98300  Biso   1.000  H
  C18      1.0000 0.15950  0.75900  0.90280  Biso   1.000  C
  C19      1.0000 0.18590  0.73200  0.81030  Biso   1.000  C
  C20      1.0000 0.26230  0.65430  0.79470  Biso   1.000  C
  H10      1.0000 0.30230  0.61560  0.84470  Biso   1.000  H
  C21      1.0000 0.27940  0.63390  0.70520  Biso   1.000  C
  C22      1.0000 0.22020  0.69340  0.63440  Biso   1.000  C
  H11      1.0000 0.23100  0.68210  0.57250  Biso   1.000  H
  C23      1.0000 0.14610  0.76850  0.65500  Biso   1.000  C
  H12      1.0000 0.10610  0.80850  0.60610  Biso   1.000  H
  C24      1.0000 0.35250  0.54790  0.68230  Biso   1.000  C
  Zn3      1.0000 0.98257  0.89127  0.77684  Biso   1.000  Zn
  O9       1.0000 0.84850  0.86339  0.65505  Biso   1.000  O
  O10      1.0000 0.79650  0.74026  0.73019  Biso   1.000  O
  O11      1.0000 0.91820  0.99752  0.25201  Biso   1.000  O
  O12      1.0000 0.84270  0.97287  0.10070  Biso   1.000  O
  N5       1.0000 0.56240  0.67350  0.40340  Biso   1.000  N
  N6       1.0000 0.62760  0.71200  0.24110  Biso   1.000  N
  C25      1.0000 0.79010  0.78610  0.65950  Biso   1.000  C
  C26      1.0000 0.70610  0.74870  0.56910  Biso   1.000  C
  C27      1.0000 0.60630  0.67960  0.56840  Biso   1.000  C
  H13      1.0000 0.58590  0.65680  0.62490  Biso   1.000  H
  C28      1.0000 0.53640  0.64390  0.48470  Biso   1.000  C
  H14      1.0000 0.46750  0.59670  0.48490  Biso   1.000  H
  C29      1.0000 0.73280  0.77970  0.48470  Biso   1.000  C
  H15      1.0000 0.80080  0.82710  0.48300  Biso   1.000  H
  C30      1.0000 0.65950  0.74100  0.40280  Biso   1.000  C
  C31      1.0000 0.68590  0.76800  0.31030  Biso   1.000  C
  C32      1.0000 0.76230  0.84570  0.29470  Biso   1.000  C
  H16      1.0000 0.80230  0.88440  0.34470  Biso   1.000  H
  C33      1.0000 0.77940  0.86610  0.20520  Biso   1.000  C
  C34      1.0000 0.72020  0.80660  0.13440  Biso   1.000  C
  H17      1.0000 0.73100  0.81790  0.07250  Biso   1.000  H
  C35      1.0000 0.64610  0.73150  0.15500  Biso   1.000  C
  H18      1.0000 0.60610  0.69150  0.10610  Biso   1.000  H
  C36      1.0000 0.85250  0.95210  0.18230  Biso   1.000  C
  Zn4      1.0000 0.51743  0.39127  0.72316  Biso   1.000  Zn
  O13      1.0000 0.65150  0.36339  0.84495  Biso   1.000  O
  O14      1.0000 0.70350  0.24026  0.76981  Biso   1.000  O
  O15      1.0000 0.58180  0.49752  0.24799  Biso   1.000  O
  O16      1.0000 0.65730  0.47287  0.39930  Biso   1.000  O
  N7       1.0000 0.93760  0.17350  0.09660  Biso   1.000  N
  N8       1.0000 0.87240  0.21200  0.25890  Biso   1.000  N
  C37      1.0000 0.70990  0.28610  0.84050  Biso   1.000  C
  C38      1.0000 0.79390  0.24870  0.93090  Biso   1.000  C
  C39      1.0000 0.89370  0.17960  0.93160  Biso   1.000  C
  H19      1.0000 0.91410  0.15680  0.87510  Biso   1.000  H
  C40      1.0000 0.96360  0.14390  0.01530  Biso   1.000  C
  H20      1.0000 0.03250  0.09670  0.01510  Biso   1.000  H
  C41      1.0000 0.76720  0.27970  0.01530  Biso   1.000  C
  H21      1.0000 0.69920  0.32710  0.01700  Biso   1.000  H
  C42      1.0000 0.84050  0.24100  0.09720  Biso   1.000  C
  C43      1.0000 0.81410  0.26800  0.18970  Biso   1.000  C
  C44      1.0000 0.73770  0.34570  0.20530  Biso   1.000  C
  H22      1.0000 0.69770  0.38440  0.15530  Biso   1.000  H
  C45      1.0000 0.72060  0.36610  0.29480  Biso   1.000  C
  C46      1.0000 0.77980  0.30660  0.36560  Biso   1.000  C
  H23      1.0000 0.76900  0.31790  0.42750  Biso   1.000  H
  C47      1.0000 0.85390  0.23150  0.34500  Biso   1.000  C
  H24      1.0000 0.89390  0.19150  0.39390  Biso   1.000  H
  C48      1.0000 0.64750  0.45210  0.31770  Biso   1.000  C
