data_image0
_cell_length_a       12.6458
_cell_length_b       15.6109
_cell_length_c       17.1344
_cell_angle_alpha    89.597
_cell_angle_beta     82.238
_cell_angle_gamma    84.826

_symmetry_space_group_name_H-M    "P 1"
_symmetry_int_tables_number       1

loop_
  _symmetry_equiv_pos_as_xyz
  'x, y, z'

loop_
  _atom_site_label
  _atom_site_occupancy
  _atom_site_fract_x
  _atom_site_fract_y
  _atom_site_fract_z
  _atom_site_thermal_displace_type
  _atom_site_B_iso_or_equiv
  _atom_site_type_symbol
  O1       1.0000 0.82170  0.87820  0.30192  Biso   1.000  O
  O2       1.0000 0.82220  0.86430  0.71610  Biso   1.000  O
  O3       1.0000 0.00300  0.72490  0.59784  Biso   1.000  O
  O4       1.0000 0.64030  0.01460  0.42470  Biso   1.000  O
  O5       1.0000 0.89490  0.05410  0.77250  Biso   1.000  O
  O6       1.0000 0.74130  0.20840  0.47212  Biso   1.000  O
  N1       1.0000 0.94810  0.78280  0.35050  Biso   1.000  N
  N2       1.0000 0.68940  0.95840  0.67640  Biso   1.000  N
  N3       1.0000 0.85580  0.74160  0.53070  Biso   1.000  N
  N4       1.0000 0.74060  0.09520  0.71880  Biso   1.000  N
  N5       1.0000 0.01620  0.71010  0.46310  Biso   1.000  N
  N6       1.0000 0.65600  0.89160  0.49990  Biso   1.000  N
  N7       1.0000 0.68810  0.14890  0.59350  Biso   1.000  N
  N8       1.0000 0.87350  0.18030  0.70270  Biso   1.000  N
  N9       1.0000 0.72600  0.83180  0.61680  Biso   1.000  N
  N10      1.0000 0.78250  0.79590  0.41310  Biso   1.000  N
  N11      1.0000 0.80960  0.24390  0.58470  Biso   1.000  N
  N12      1.0000 0.61620  0.01780  0.56050  Biso   1.000  N
  C1       1.0000 0.63380  0.86910  0.58270  Biso   1.000  C
  H1       1.0000 0.57370  0.83320  0.59220  Biso   1.000  H
  C2       1.0000 0.84800  0.82460  0.34990  Biso   1.000  C
  C3       1.0000 0.69830  0.16670  0.67530  Biso   1.000  C
  H2       1.0000 0.63110  0.19380  0.70340  Biso   1.000  H
  C4       1.0000 0.60700  0.95690  0.62480  Biso   1.000  C
  H3       1.0000 0.53490  0.96180  0.65450  Biso   1.000  H
  C5       1.0000 0.75310  0.88290  0.67400  Biso   1.000  C
  C6       1.0000 0.94580  0.70950  0.40370  Biso   1.000  C
  H4       1.0000 0.95540  0.65480  0.37480  Biso   1.000  H
  C7       1.0000 0.83260  0.72410  0.45220  Biso   1.000  C
  H5       1.0000 0.79290  0.67310  0.45120  Biso   1.000  H
  C8       1.0000 0.63890  0.97890  0.48830  Biso   1.000  C
  C9       1.0000 0.96280  0.72580  0.53710  Biso   1.000  C
  C10      1.0000 0.97050  0.21640  0.71820  Biso   1.000  C
  H6       1.0000 0.00040  0.18340  0.75950  Biso   1.000  H
  H7       1.0000 0.95210  0.27490  0.73740  Biso   1.000  H
  C11      1.0000 0.78860  0.22900  0.66810  Biso   1.000  C
  H8       1.0000 0.76480  0.28270  0.69710  Biso   1.000  H
  C12      1.0000 0.84240  0.10390  0.73460  Biso   1.000  C
  C13      1.0000 0.67170  0.83040  0.43560  Biso   1.000  C
  H9       1.0000 0.64560  0.85800  0.39020  Biso   1.000  H
  H10      1.0000 0.62860  0.78300  0.45030  Biso   1.000  H
  C14      1.0000 0.68440  0.01980  0.74010  Biso   1.000  C
  H11      1.0000 0.60990  0.03800  0.75830  Biso   1.000  H
  H12      1.0000 0.71460  0.99130  0.78360  Biso   1.000  H
  C15      1.0000 0.86990  0.31290  0.55150  Biso   1.000  C
  H13      1.0000 0.84480  0.33060  0.50230  Biso   1.000  H
  H14      1.0000 0.85610  0.36180  0.58720  Biso   1.000  H
  C16      1.0000 0.59710  0.10950  0.57080  Biso   1.000  C
  H15      1.0000 0.53590  0.12210  0.61080  Biso   1.000  H
  H16      1.0000 0.57930  0.13490  0.52190  Biso   1.000  H
  C17      1.0000 0.77630  0.74590  0.59950  Biso   1.000  C
  H17      1.0000 0.80970  0.72480  0.64450  Biso   1.000  H
  H18      1.0000 0.72150  0.70830  0.59170  Biso   1.000  H
  C18      1.0000 0.74600  0.20100  0.54340  Biso   1.000  C
  O7       1.0000 0.17830  0.12180  0.69808  Biso   1.000  O
  O8       1.0000 0.17780  0.13570  0.28390  Biso   1.000  O
  O9       1.0000 0.99700  0.27510  0.40216  Biso   1.000  O
  O10      1.0000 0.35970  0.98540  0.57530  Biso   1.000  O
  O11      1.0000 0.10510  0.94590  0.22750  Biso   1.000  O
  O12      1.0000 0.25870  0.79160  0.52788  Biso   1.000  O
  N13      1.0000 0.05190  0.21720  0.64950  Biso   1.000  N
  N14      1.0000 0.31060  0.04160  0.32360  Biso   1.000  N
  N15      1.0000 0.14420  0.25840  0.46930  Biso   1.000  N
  N16      1.0000 0.25940  0.90480  0.28120  Biso   1.000  N
  N17      1.0000 0.98380  0.28990  0.53690  Biso   1.000  N
  N18      1.0000 0.34400  0.10840  0.50010  Biso   1.000  N
  N19      1.0000 0.31190  0.85110  0.40650  Biso   1.000  N
  N20      1.0000 0.12650  0.81970  0.29730  Biso   1.000  N
  N21      1.0000 0.27400  0.16820  0.38320  Biso   1.000  N
  N22      1.0000 0.21750  0.20410  0.58690  Biso   1.000  N
  N23      1.0000 0.19040  0.75610  0.41530  Biso   1.000  N
  N24      1.0000 0.38380  0.98220  0.43950  Biso   1.000  N
  C19      1.0000 0.36620  0.13090  0.41730  Biso   1.000  C
  H19      1.0000 0.42630  0.16680  0.40780  Biso   1.000  H
  C20      1.0000 0.15200  0.17540  0.65010  Biso   1.000  C
  C21      1.0000 0.30170  0.83330  0.32470  Biso   1.000  C
  H20      1.0000 0.36890  0.80620  0.29660  Biso   1.000  H
  C22      1.0000 0.39300  0.04310  0.37520  Biso   1.000  C
  H21      1.0000 0.46510  0.03820  0.34550  Biso   1.000  H
  C23      1.0000 0.24690  0.11710  0.32600  Biso   1.000  C
  C24      1.0000 0.05420  0.29050  0.59630  Biso   1.000  C
  H22      1.0000 0.04460  0.34520  0.62520  Biso   1.000  H
  C25      1.0000 0.16740  0.27590  0.54780  Biso   1.000  C
  H23      1.0000 0.20710  0.32690  0.54880  Biso   1.000  H
  C26      1.0000 0.36110  0.02110  0.51170  Biso   1.000  C
  C27      1.0000 0.03720  0.27420  0.46290  Biso   1.000  C
  C28      1.0000 0.02950  0.78360  0.28180  Biso   1.000  C
  H24      1.0000 0.99960  0.81660  0.24050  Biso   1.000  H
  H25      1.0000 0.04790  0.72510  0.26260  Biso   1.000  H
  C29      1.0000 0.21140  0.77100  0.33190  Biso   1.000  C
  H26      1.0000 0.23520  0.71730  0.30290  Biso   1.000  H
  C30      1.0000 0.15760  0.89610  0.26540  Biso   1.000  C
  C31      1.0000 0.32830  0.16960  0.56440  Biso   1.000  C
  H27      1.0000 0.35440  0.14200  0.60980  Biso   1.000  H
  H28      1.0000 0.37140  0.21700  0.54970  Biso   1.000  H
  C32      1.0000 0.31560  0.98020  0.25990  Biso   1.000  C
  H29      1.0000 0.39010  0.96200  0.24170  Biso   1.000  H
  H30      1.0000 0.28540  0.00870  0.21640  Biso   1.000  H
  C33      1.0000 0.13010  0.68710  0.44850  Biso   1.000  C
  H31      1.0000 0.15520  0.66940  0.49770  Biso   1.000  H
  H32      1.0000 0.14390  0.63820  0.41280  Biso   1.000  H
  C34      1.0000 0.40290  0.89050  0.42920  Biso   1.000  C
  H33      1.0000 0.46410  0.87790  0.38920  Biso   1.000  H
  H34      1.0000 0.42070  0.86510  0.47810  Biso   1.000  H
  C35      1.0000 0.22370  0.25410  0.40050  Biso   1.000  C
  H35      1.0000 0.19030  0.27520  0.35550  Biso   1.000  H
  H36      1.0000 0.27850  0.29170  0.40830  Biso   1.000  H
  C36      1.0000 0.25400  0.79900  0.45660  Biso   1.000  C
  O13      1.0000 0.30460  0.45890  0.11532  Biso   1.000  O
  O14      1.0000 0.11270  0.35710  0.75375  Biso   1.000  O
  O15      1.0000 0.34330  0.59960  0.94720  Biso   1.000  O
  O16      1.0000 0.14830  0.76840  0.92070  Biso   1.000  O
  O17      1.0000 0.92610  0.79000  0.06710  Biso   1.000  O
  O18      1.0000 0.92270  0.51990  0.73280  Biso   1.000  O
  N25      1.0000 0.91670  0.65840  0.77830  Biso   1.000  N
  N26      1.0000 0.21150  0.47510  0.74360  Biso   1.000  N
  N27      1.0000 0.85190  0.77490  0.95250  Biso   1.000  N
  N28      1.0000 0.76760  0.72900  0.06470  Biso   1.000  N
  N29      1.0000 0.29200  0.57250  0.82570  Biso   1.000  N
  N30      1.0000 0.32360  0.36970  0.00710  Biso   1.000  N
  N31      1.0000 0.35450  0.46290  0.89480  Biso   1.000  N
  N32      1.0000 0.76500  0.67250  0.88120  Biso   1.000  N
  N33      1.0000 0.00600  0.75920  0.85100  Biso   1.000  N
  N34      1.0000 0.16380  0.69180  0.80450  Biso   1.000  N
  N35      1.0000 0.07390  0.59140  0.73290  Biso   1.000  N
  N36      1.0000 0.25340  0.36890  0.82440  Biso   1.000  N
  C37      1.0000 0.14970  0.52550  0.69210  Biso   1.000  C
  H37      1.0000 0.11070  0.48750  0.66440  Biso   1.000  H
  H38      1.0000 0.19840  0.55290  0.65300  Biso   1.000  H
  C38      1.0000 0.69270  0.71880  0.00890  Biso   1.000  C
  H39      1.0000 0.62460  0.75370  0.02360  Biso   1.000  H
  C39      1.0000 0.75330  0.74900  0.93010  Biso   1.000  C
  H40      1.0000 0.71230  0.79680  0.90720  Biso   1.000  H
  C40      1.0000 0.80150  0.67330  0.79720  Biso   1.000  C
  H41      1.0000 0.76840  0.62940  0.77180  Biso   1.000  H
  H42      1.0000 0.77810  0.72860  0.77610  Biso   1.000  H
  C41      1.0000 0.96690  0.58330  0.74750  Biso   1.000  C
  C42      1.0000 0.11040  0.74170  0.86510  Biso   1.000  C
  C43      1.0000 0.98900  0.72600  0.77500  Biso   1.000  C
  H43      1.0000 0.96840  0.77250  0.73980  Biso   1.000  H
  C44      1.0000 0.18430  0.39620  0.77230  Biso   1.000  C
  C45      1.0000 0.27540  0.66070  0.80120  Biso   1.000  C
  H44      1.0000 0.31040  0.66610  0.74760  Biso   1.000  H
  H45      1.0000 0.30910  0.69680  0.83460  Biso   1.000  H
  C46      1.0000 0.85570  0.76670  0.03190  Biso   1.000  C
  C47      1.0000 0.30750  0.50030  0.77050  Biso   1.000  C
  H46      1.0000 0.36300  0.50940  0.72620  Biso   1.000  H
  C48      1.0000 0.28910  0.39190  0.08380  Biso   1.000  C
  C49      1.0000 0.39960  0.41800  0.95840  Biso   1.000  C
  H47      1.0000 0.42600  0.45960  0.99110  Biso   1.000  H
  H48      1.0000 0.46020  0.37900  0.93650  Biso   1.000  H
  C50      1.0000 0.09880  0.67850  0.74300  Biso   1.000  C
  H49      1.0000 0.12880  0.70300  0.69300  Biso   1.000  H
  C51      1.0000 0.26170  0.27990  0.85090  Biso   1.000  C
  H50      1.0000 0.21540  0.24760  0.82380  Biso   1.000  H
  H51      1.0000 0.33470  0.25500  0.83640  Biso   1.000  H
  C52      1.0000 0.92950  0.81730  0.89890  Biso   1.000  C
  H52      1.0000 0.89140  0.85480  0.86470  Biso   1.000  H
  H53      1.0000 0.96790  0.85300  0.92940  Biso   1.000  H
  C53      1.0000 0.33120  0.55030  0.89510  Biso   1.000  C
  C54      1.0000 0.34180  0.42330  0.82150  Biso   1.000  C
  H54      1.0000 0.40920  0.39270  0.79730  Biso   1.000  H
  O19      1.0000 0.69540  0.54110  0.88468  Biso   1.000  O
  O20      1.0000 0.88730  0.64290  0.24625  Biso   1.000  O
  O21      1.0000 0.65670  0.40040  0.05280  Biso   1.000  O
  O22      1.0000 0.85170  0.23160  0.07930  Biso   1.000  O
  O23      1.0000 0.07390  0.21000  0.93290  Biso   1.000  O
  O24      1.0000 0.07730  0.48010  0.26720  Biso   1.000  O
  N37      1.0000 0.08330  0.34160  0.22170  Biso   1.000  N
  N38      1.0000 0.78850  0.52490  0.25640  Biso   1.000  N
  N39      1.0000 0.14810  0.22510  0.04750  Biso   1.000  N
  N40      1.0000 0.23240  0.27100  0.93530  Biso   1.000  N
  N41      1.0000 0.70800  0.42750  0.17430  Biso   1.000  N
  N42      1.0000 0.67640  0.63030  0.99290  Biso   1.000  N
  N43      1.0000 0.64550  0.53710  0.10520  Biso   1.000  N
  N44      1.0000 0.23500  0.32750  0.11880  Biso   1.000  N
  N45      1.0000 0.99400  0.24080  0.14900  Biso   1.000  N
  N46      1.0000 0.83620  0.30820  0.19550  Biso   1.000  N
  N47      1.0000 0.92610  0.40860  0.26710  Biso   1.000  N
  N48      1.0000 0.74660  0.63110  0.17560  Biso   1.000  N
  C55      1.0000 0.85030  0.47450  0.30790  Biso   1.000  C
  H55      1.0000 0.88930  0.51250  0.33560  Biso   1.000  H
  H56      1.0000 0.80160  0.44710  0.34700  Biso   1.000  H
  C56      1.0000 0.30730  0.28120  0.99110  Biso   1.000  C
  H57      1.0000 0.37540  0.24630  0.97640  Biso   1.000  H
  C57      1.0000 0.24670  0.25100  0.06990  Biso   1.000  C
  H58      1.0000 0.28770  0.20320  0.09280  Biso   1.000  H
  C58      1.0000 0.19850  0.32670  0.20280  Biso   1.000  C
  H59      1.0000 0.23160  0.37060  0.22820  Biso   1.000  H
  H60      1.0000 0.22190  0.27140  0.22390  Biso   1.000  H
  C59      1.0000 0.03310  0.41670  0.25250  Biso   1.000  C
  C60      1.0000 0.88960  0.25830  0.13490  Biso   1.000  C
  C61      1.0000 0.01100  0.27400  0.22500  Biso   1.000  C
  H61      1.0000 0.03160  0.22750  0.26020  Biso   1.000  H
  C62      1.0000 0.81570  0.60380  0.22770  Biso   1.000  C
  C63      1.0000 0.72460  0.33930  0.19880  Biso   1.000  C
  H62      1.0000 0.68960  0.33390  0.25240  Biso   1.000  H
  H63      1.0000 0.69090  0.30320  0.16540  Biso   1.000  H
  C64      1.0000 0.14430  0.23330  0.96810  Biso   1.000  C
  C65      1.0000 0.69250  0.49970  0.22950  Biso   1.000  C
  H64      1.0000 0.63700  0.49060  0.27380  Biso   1.000  H
  C66      1.0000 0.71090  0.60810  0.91620  Biso   1.000  C
  C67      1.0000 0.60040  0.58200  0.04160  Biso   1.000  C
  H65      1.0000 0.57400  0.54040  0.00890  Biso   1.000  H
  H66      1.0000 0.53980  0.62100  0.06350  Biso   1.000  H
  C68      1.0000 0.90120  0.32150  0.25700  Biso   1.000  C
  H67      1.0000 0.87120  0.29700  0.30700  Biso   1.000  H
  C69      1.0000 0.73830  0.72010  0.14910  Biso   1.000  C
  H68      1.0000 0.78460  0.75240  0.17620  Biso   1.000  H
  H69      1.0000 0.66530  0.74500  0.16360  Biso   1.000  H
  C70      1.0000 0.07050  0.18270  0.10110  Biso   1.000  C
  H70      1.0000 0.10860  0.14520  0.13530  Biso   1.000  H
  H71      1.0000 0.03210  0.14700  0.07060  Biso   1.000  H
  C71      1.0000 0.66880  0.44970  0.10490  Biso   1.000  C
  C72      1.0000 0.65820  0.57670  0.17850  Biso   1.000  C
  H72      1.0000 0.59080  0.60730  0.20270  Biso   1.000  H
  O25      1.0000 0.39310  0.96790  0.91210  Biso   1.000  O
  C73      1.0000 0.36360  0.95230  0.87650  Biso   1.000  C
  C74      1.0000 0.06840  0.91280  0.65690  Biso   1.000  C
  H73      1.0000 0.99720  0.91960  0.68660  Biso   1.000  H
  H74      1.0000 0.07830  0.85590  0.63310  Biso   1.000  H
  C75      1.0000 0.33700  0.78140  0.11750  Biso   1.000  C
  C76      1.0000 0.42620  0.83910  0.11940  Biso   1.000  C
  C77      1.0000 0.34490  0.70070  0.15250  Biso   1.000  C
  H75      1.0000 0.40480  0.68210  0.17620  Biso   1.000  H
  C78      1.0000 0.08740  0.62080  0.11730  Biso   1.000  C
  H76      1.0000 0.01940  0.65510  0.12960  Biso   1.000  H
  H77      1.0000 0.09220  0.57730  0.15760  Biso   1.000  H
  C79      1.0000 0.24700  0.80820  0.08350  Biso   1.000  C
  H78      1.0000 0.24080  0.86200  0.06000  Biso   1.000  H
  C80      1.0000 0.26250  0.64890  0.15150  Biso   1.000  C
  H79      1.0000 0.26680  0.59460  0.17410  Biso   1.000  H
  C81      1.0000 0.99860  0.96650  0.53270  Biso   1.000  C
  H80      1.0000 0.92640  0.96820  0.56050  Biso   1.000  H
  H81      1.0000 0.01630  0.90980  0.50910  Biso   1.000  H
  C82      1.0000 0.12170  0.95960  0.78190  Biso   1.000  C
  H82      1.0000 0.05230  0.98500  0.79560  Biso   1.000  H
  C83      1.0000 0.07580  0.97990  0.59170  Biso   1.000  C
  H83      1.0000 0.05930  0.03690  0.61490  Biso   1.000  H
  H84      1.0000 0.14850  0.97650  0.56450  Biso   1.000  H
  C84      1.0000 0.24930  0.88340  0.69150  Biso   1.000  C
  H85      1.0000 0.26720  0.85570  0.64310  Biso   1.000  H
  C85      1.0000 0.09140  0.57790  0.03860  Biso   1.000  C
  H86      1.0000 0.15910  0.54300  0.02640  Biso   1.000  H
  H87      1.0000 0.08720  0.62130  0.99810  Biso   1.000  H
  C86      1.0000 0.29970  0.92800  0.81180  Biso   1.000  C
  C87      1.0000 0.19670  0.96350  0.83300  Biso   1.000  C
  H88      1.0000 0.17740  0.99030  0.88180  Biso   1.000  H
  C88      1.0000 0.16680  0.75470  0.08450  Biso   1.000  C
  H89      1.0000 0.10560  0.77250  0.06190  Biso   1.000  H
  C89      1.0000 0.00020  0.52190  0.03890  Biso   1.000  C
  H90      1.0000 0.00520  0.47850  0.07930  Biso   1.000  H
  H91      1.0000 0.93300  0.55690  0.05220  Biso   1.000  H
  C90      1.0000 0.32580  0.88720  0.74010  Biso   1.000  C
  H92      1.0000 0.39510  0.86240  0.72480  Biso   1.000  H
  O26      1.0000 0.43720  0.00030  0.85680  Biso   1.000  O
  O27      1.0000 0.35220  0.91880  0.94270  Biso   1.000  O
  N49      1.0000 0.14890  0.91880  0.71210  Biso   1.000  N
  C91      1.0000 0.40450  0.91680  0.85350  Biso   1.000  C
  O28      1.0000 0.41110  0.91200  0.08680  Biso   1.000  O
  N50      1.0000 0.17580  0.67670  0.11780  Biso   1.000  N
  O29      1.0000 0.50200  0.81380  0.15390  Biso   1.000  O
  O30      1.0000 0.48350  0.86270  0.83480  Biso   1.000  O
  O31      1.0000 0.60690  0.03210  0.08790  Biso   1.000  O
  C92      1.0000 0.63640  0.04770  0.12350  Biso   1.000  C
  C93      1.0000 0.93160  0.08720  0.34310  Biso   1.000  C
  H93      1.0000 0.00280  0.08040  0.31340  Biso   1.000  H
  H94      1.0000 0.92170  0.14410  0.36690  Biso   1.000  H
  C94      1.0000 0.66300  0.21860  0.88250  Biso   1.000  C
  C95      1.0000 0.57380  0.16090  0.88060  Biso   1.000  C
  C96      1.0000 0.65510  0.29930  0.84750  Biso   1.000  C
  H95      1.0000 0.59520  0.31790  0.82380  Biso   1.000  H
  C97      1.0000 0.91260  0.37920  0.88270  Biso   1.000  C
  H96      1.0000 0.98060  0.34490  0.87040  Biso   1.000  H
  H97      1.0000 0.90780  0.42270  0.84240  Biso   1.000  H
  C98      1.0000 0.75300  0.19180  0.91650  Biso   1.000  C
  H98      1.0000 0.75920  0.13800  0.94000  Biso   1.000  H
  C99      1.0000 0.73750  0.35110  0.84850  Biso   1.000  C
  H99      1.0000 0.73320  0.40540  0.82590  Biso   1.000  H
  C100     1.0000 0.00140  0.03350  0.46730  Biso   1.000  C
  H100     1.0000 0.07360  0.03180  0.43950  Biso   1.000  H
  H101     1.0000 0.98370  0.09020  0.49090  Biso   1.000  H
  C101     1.0000 0.87830  0.04040  0.21810  Biso   1.000  C
  H102     1.0000 0.94770  0.01500  0.20440  Biso   1.000  H
  C102     1.0000 0.92420  0.02010  0.40830  Biso   1.000  C
  H103     1.0000 0.94070  0.96310  0.38510  Biso   1.000  H
  H104     1.0000 0.85150  0.02350  0.43550  Biso   1.000  H
  C103     1.0000 0.75070  0.11660  0.30850  Biso   1.000  C
  H105     1.0000 0.73280  0.14430  0.35690  Biso   1.000  H
  C104     1.0000 0.90860  0.42210  0.96140  Biso   1.000  C
  H106     1.0000 0.84090  0.45700  0.97360  Biso   1.000  H
  H107     1.0000 0.91280  0.37870  0.00190  Biso   1.000  H
  C105     1.0000 0.70030  0.07200  0.18820  Biso   1.000  C
  C106     1.0000 0.80330  0.03650  0.16700  Biso   1.000  C
  H108     1.0000 0.82260  0.00970  0.11820  Biso   1.000  H
  C107     1.0000 0.83320  0.24530  0.91550  Biso   1.000  C
  H109     1.0000 0.89440  0.22750  0.93810  Biso   1.000  H
  C108     1.0000 0.99980  0.47810  0.96110  Biso   1.000  C
  H110     1.0000 0.99480  0.52150  0.92070  Biso   1.000  H
  H111     1.0000 0.06700  0.44310  0.94780  Biso   1.000  H
  C109     1.0000 0.67420  0.11280  0.25990  Biso   1.000  C
  H112     1.0000 0.60490  0.13760  0.27520  Biso   1.000  H
  O32      1.0000 0.56280  0.99970  0.14320  Biso   1.000  O
  O33      1.0000 0.64780  0.08120  0.05730  Biso   1.000  O
  N51      1.0000 0.85110  0.08120  0.28790  Biso   1.000  N
  C110     1.0000 0.59550  0.08320  0.14650  Biso   1.000  C
  O34      1.0000 0.58890  0.08800  0.91320  Biso   1.000  O
  N52      1.0000 0.82420  0.32330  0.88220  Biso   1.000  N
  O35      1.0000 0.49800  0.18620  0.84610  Biso   1.000  O
  O36      1.0000 0.51650  0.13730  0.16520  Biso   1.000  O
  U1       1.0000 0.50000  0.00000  0.00000  Biso   1.000  U
