data_image0
_cell_length_a       14.7556
_cell_length_b       22.5021
_cell_length_c       10.5208
_cell_angle_alpha    90
_cell_angle_beta     90
_cell_angle_gamma    90

_symmetry_space_group_name_H-M    "P 1"
_symmetry_int_tables_number       1

loop_
  _symmetry_equiv_pos_as_xyz
  'x, y, z'

loop_
  _atom_site_label
  _atom_site_occupancy
  _atom_site_fract_x
  _atom_site_fract_y
  _atom_site_fract_z
  _atom_site_thermal_displace_type
  _atom_site_B_iso_or_equiv
  _atom_site_type_symbol
  Cl1      1.0000 0.89049  0.32950  0.19520  Biso   1.000  Cl
  N1       1.0000 0.72240  0.22580  0.11020  Biso   1.000  N
  C1       1.0000 0.59590  0.19140  0.93110  Biso   1.000  C
  H1       1.0000 0.55350  0.18020  0.87020  Biso   1.000  H
  C2       1.0000 0.70590  0.16870  0.08770  Biso   1.000  C
  H2       1.0000 0.73800  0.14060  0.13420  Biso   1.000  H
  C3       1.0000 0.61230  0.96000  0.94440  Biso   1.000  C
  C4       1.0000 0.63140  0.08330  0.98060  Biso   1.000  C
  C5       1.0000 0.64320  0.14860  0.99850  Biso   1.000  C
  C6       1.0000 0.61520  0.99950  0.84070  Biso   1.000  C
  H3       1.0000 0.61180  0.98410  0.75880  Biso   1.000  H
  C7       1.0000 0.67570  0.26730  0.04310  Biso   1.000  C
  H4       1.0000 0.68720  0.30740  0.05710  Biso   1.000  H
  C8       1.0000 0.61810  0.98340  0.06460  Biso   1.000  C
  H5       1.0000 0.61560  0.95860  0.13530  Biso   1.000  H
  C9       1.0000 0.62810  0.04680  0.08030  Biso   1.000  C
  H6       1.0000 0.63230  0.06250  0.16190  Biso   1.000  H
  C10      1.0000 0.62300  0.06080  0.85660  Biso   1.000  C
  H7       1.0000 0.62260  0.08620  0.78680  Biso   1.000  H
  C11      1.0000 0.61220  0.25100  0.95520  Biso   1.000  C
  H8       1.0000 0.57980  0.27990  0.91140  Biso   1.000  H
  N2       1.0000 0.60210  0.87200  0.81940  Biso   1.000  N
  C12      1.0000 0.60510  0.89780  0.92710  Biso   1.000  C
  H9       1.0000 0.60250  0.87410  0.99940  Biso   1.000  H
  C13      1.0000 0.68320  0.78520  0.75170  Biso   1.000  C
  H10      1.0000 0.73660  0.79940  0.79610  Biso   1.000  H
  H11      1.0000 0.68450  0.80070  0.66570  Biso   1.000  H
  C14      1.0000 0.51680  0.78460  0.75200  Biso   1.000  C
  H12      1.0000 0.51530  0.80010  0.66600  Biso   1.000  H
  H13      1.0000 0.46320  0.79850  0.79620  Biso   1.000  H
  C15      1.0000 0.59950  0.80640  0.81840  Biso   1.000  C
  H14      1.0000 0.59960  0.79170  0.90610  Biso   1.000  H
  Cl2      1.0000 0.89049  0.17050  0.30480  Biso   1.000  Cl
  N3       1.0000 0.72240  0.27420  0.38980  Biso   1.000  N
  C16      1.0000 0.59590  0.30860  0.56890  Biso   1.000  C
  H15      1.0000 0.55350  0.31980  0.62980  Biso   1.000  H
  C17      1.0000 0.70590  0.33130  0.41230  Biso   1.000  C
  H16      1.0000 0.73800  0.35940  0.36580  Biso   1.000  H
  C18      1.0000 0.61230  0.54000  0.55560  Biso   1.000  C
  C19      1.0000 0.63140  0.41670  0.51940  Biso   1.000  C
  C20      1.0000 0.64320  0.35140  0.50150  Biso   1.000  C
  C21      1.0000 0.61520  0.50050  0.65930  Biso   1.000  C
  H17      1.0000 0.61180  0.51590  0.74120  Biso   1.000  H
  C22      1.0000 0.67570  0.23270  0.45690  Biso   1.000  C
  H18      1.0000 0.68720  0.19260  0.44290  Biso   1.000  H
  C23      1.0000 0.61810  0.51660  0.43540  Biso   1.000  C
  H19      1.0000 0.61560  0.54140  0.36470  Biso   1.000  H
  C24      1.0000 0.62810  0.45320  0.41970  Biso   1.000  C
  H20      1.0000 0.63230  0.43750  0.33810  Biso   1.000  H
  C25      1.0000 0.62300  0.43920  0.64340  Biso   1.000  C
  H21      1.0000 0.62260  0.41380  0.71320  Biso   1.000  H
  C26      1.0000 0.61220  0.24900  0.54480  Biso   1.000  C
  H22      1.0000 0.57980  0.22010  0.58860  Biso   1.000  H
  N4       1.0000 0.60210  0.62800  0.68060  Biso   1.000  N
  C27      1.0000 0.60510  0.60220  0.57290  Biso   1.000  C
  H23      1.0000 0.60250  0.62590  0.50060  Biso   1.000  H
  C28      1.0000 0.68320  0.71480  0.74830  Biso   1.000  C
  H24      1.0000 0.73660  0.70060  0.70390  Biso   1.000  H
  H25      1.0000 0.68450  0.69930  0.83430  Biso   1.000  H
  C29      1.0000 0.51680  0.71540  0.74800  Biso   1.000  C
  H26      1.0000 0.51530  0.69990  0.83400  Biso   1.000  H
  H27      1.0000 0.46320  0.70150  0.70380  Biso   1.000  H
  C30      1.0000 0.59950  0.69360  0.68160  Biso   1.000  C
  H28      1.0000 0.59960  0.70830  0.59390  Biso   1.000  H
  Zn1      1.0000 0.81394  0.25000  0.25000  Biso   1.000  Zn
  Cl3      1.0000 0.60951  0.67050  0.19520  Biso   1.000  Cl
  N5       1.0000 0.77760  0.77420  0.11020  Biso   1.000  N
  C31      1.0000 0.90410  0.80860  0.93110  Biso   1.000  C
  H29      1.0000 0.94650  0.81980  0.87020  Biso   1.000  H
  C32      1.0000 0.79410  0.83130  0.08770  Biso   1.000  C
  H30      1.0000 0.76200  0.85940  0.13420  Biso   1.000  H
  C33      1.0000 0.88770  0.04000  0.94440  Biso   1.000  C
  C34      1.0000 0.86860  0.91670  0.98060  Biso   1.000  C
  C35      1.0000 0.85680  0.85140  0.99850  Biso   1.000  C
  C36      1.0000 0.88480  0.00050  0.84070  Biso   1.000  C
  H31      1.0000 0.88820  0.01590  0.75880  Biso   1.000  H
  C37      1.0000 0.82430  0.73270  0.04310  Biso   1.000  C
  H32      1.0000 0.81280  0.69260  0.05710  Biso   1.000  H
  C38      1.0000 0.88190  0.01660  0.06460  Biso   1.000  C
  H33      1.0000 0.88440  0.04140  0.13530  Biso   1.000  H
  C39      1.0000 0.87190  0.95320  0.08030  Biso   1.000  C
  H34      1.0000 0.86770  0.93750  0.16190  Biso   1.000  H
  C40      1.0000 0.87700  0.93920  0.85660  Biso   1.000  C
  H35      1.0000 0.87740  0.91380  0.78680  Biso   1.000  H
  C41      1.0000 0.88780  0.74900  0.95520  Biso   1.000  C
  H36      1.0000 0.92020  0.72010  0.91140  Biso   1.000  H
  N6       1.0000 0.89790  0.12800  0.81940  Biso   1.000  N
  C42      1.0000 0.89490  0.10220  0.92710  Biso   1.000  C
  H37      1.0000 0.89750  0.12590  0.99940  Biso   1.000  H
  C43      1.0000 0.81680  0.21480  0.75170  Biso   1.000  C
  H38      1.0000 0.76340  0.20060  0.79610  Biso   1.000  H
  H39      1.0000 0.81550  0.19930  0.66570  Biso   1.000  H
  C44      1.0000 0.98320  0.21540  0.75200  Biso   1.000  C
  H40      1.0000 0.98470  0.19990  0.66600  Biso   1.000  H
  H41      1.0000 0.03680  0.20150  0.79620  Biso   1.000  H
  C45      1.0000 0.90050  0.19360  0.81840  Biso   1.000  C
  H42      1.0000 0.90040  0.20830  0.90610  Biso   1.000  H
  Cl4      1.0000 0.60951  0.82950  0.30480  Biso   1.000  Cl
  N7       1.0000 0.77760  0.72580  0.38980  Biso   1.000  N
  C46      1.0000 0.90410  0.69140  0.56890  Biso   1.000  C
  H43      1.0000 0.94650  0.68020  0.62980  Biso   1.000  H
  C47      1.0000 0.79410  0.66870  0.41230  Biso   1.000  C
  H44      1.0000 0.76200  0.64060  0.36580  Biso   1.000  H
  C48      1.0000 0.88770  0.46000  0.55560  Biso   1.000  C
  C49      1.0000 0.86860  0.58330  0.51940  Biso   1.000  C
  C50      1.0000 0.85680  0.64860  0.50150  Biso   1.000  C
  C51      1.0000 0.88480  0.49950  0.65930  Biso   1.000  C
  H45      1.0000 0.88820  0.48410  0.74120  Biso   1.000  H
  C52      1.0000 0.82430  0.76730  0.45690  Biso   1.000  C
  H46      1.0000 0.81280  0.80740  0.44290  Biso   1.000  H
  C53      1.0000 0.88190  0.48340  0.43540  Biso   1.000  C
  H47      1.0000 0.88440  0.45860  0.36470  Biso   1.000  H
  C54      1.0000 0.87190  0.54680  0.41970  Biso   1.000  C
  H48      1.0000 0.86770  0.56250  0.33810  Biso   1.000  H
  C55      1.0000 0.87700  0.56080  0.64340  Biso   1.000  C
  H49      1.0000 0.87740  0.58620  0.71320  Biso   1.000  H
  C56      1.0000 0.88780  0.75100  0.54480  Biso   1.000  C
  H50      1.0000 0.92020  0.77990  0.58860  Biso   1.000  H
  N8       1.0000 0.89790  0.37200  0.68060  Biso   1.000  N
  C57      1.0000 0.89490  0.39780  0.57290  Biso   1.000  C
  H51      1.0000 0.89750  0.37410  0.50060  Biso   1.000  H
  C58      1.0000 0.81680  0.28520  0.74830  Biso   1.000  C
  H52      1.0000 0.76340  0.29940  0.70390  Biso   1.000  H
  H53      1.0000 0.81550  0.30070  0.83430  Biso   1.000  H
  C59      1.0000 0.98320  0.28460  0.74800  Biso   1.000  C
  H54      1.0000 0.98470  0.30010  0.83400  Biso   1.000  H
  H55      1.0000 0.03680  0.29850  0.70380  Biso   1.000  H
  C60      1.0000 0.90050  0.30640  0.68160  Biso   1.000  C
  H56      1.0000 0.90040  0.29170  0.59390  Biso   1.000  H
  Zn2      1.0000 0.68606  0.75000  0.25000  Biso   1.000  Zn
  Cl5      1.0000 0.10951  0.67050  0.80480  Biso   1.000  Cl
  N9       1.0000 0.27760  0.77420  0.88980  Biso   1.000  N
  C61      1.0000 0.40410  0.80860  0.06890  Biso   1.000  C
  H57      1.0000 0.44650  0.81980  0.12980  Biso   1.000  H
  C62      1.0000 0.29410  0.83130  0.91230  Biso   1.000  C
  H58      1.0000 0.26200  0.85940  0.86580  Biso   1.000  H
  C63      1.0000 0.38770  0.04000  0.05560  Biso   1.000  C
  C64      1.0000 0.36860  0.91670  0.01940  Biso   1.000  C
  C65      1.0000 0.35680  0.85140  0.00150  Biso   1.000  C
  C66      1.0000 0.38480  0.00050  0.15930  Biso   1.000  C
  H59      1.0000 0.38820  0.01590  0.24120  Biso   1.000  H
  C67      1.0000 0.32430  0.73270  0.95690  Biso   1.000  C
  H60      1.0000 0.31280  0.69260  0.94290  Biso   1.000  H
  C68      1.0000 0.38190  0.01660  0.93540  Biso   1.000  C
  H61      1.0000 0.38440  0.04140  0.86470  Biso   1.000  H
  C69      1.0000 0.37190  0.95320  0.91970  Biso   1.000  C
  H62      1.0000 0.36770  0.93750  0.83810  Biso   1.000  H
  C70      1.0000 0.37700  0.93920  0.14340  Biso   1.000  C
  H63      1.0000 0.37740  0.91380  0.21320  Biso   1.000  H
  C71      1.0000 0.38780  0.74900  0.04480  Biso   1.000  C
  H64      1.0000 0.42020  0.72010  0.08860  Biso   1.000  H
  N10      1.0000 0.39790  0.12800  0.18060  Biso   1.000  N
  C72      1.0000 0.39490  0.10220  0.07290  Biso   1.000  C
  H65      1.0000 0.39750  0.12590  0.00060  Biso   1.000  H
  C73      1.0000 0.31680  0.21480  0.24830  Biso   1.000  C
  H66      1.0000 0.26340  0.20060  0.20390  Biso   1.000  H
  H67      1.0000 0.31550  0.19930  0.33430  Biso   1.000  H
  C74      1.0000 0.48320  0.21540  0.24800  Biso   1.000  C
  H68      1.0000 0.48470  0.19990  0.33400  Biso   1.000  H
  H69      1.0000 0.53680  0.20150  0.20380  Biso   1.000  H
  C75      1.0000 0.40050  0.19360  0.18160  Biso   1.000  C
  H70      1.0000 0.40040  0.20830  0.09390  Biso   1.000  H
  Cl6      1.0000 0.10951  0.82950  0.69520  Biso   1.000  Cl
  N11      1.0000 0.27760  0.72580  0.61020  Biso   1.000  N
  C76      1.0000 0.40410  0.69140  0.43110  Biso   1.000  C
  H71      1.0000 0.44650  0.68020  0.37020  Biso   1.000  H
  C77      1.0000 0.29410  0.66870  0.58770  Biso   1.000  C
  H72      1.0000 0.26200  0.64060  0.63420  Biso   1.000  H
  C78      1.0000 0.38770  0.46000  0.44440  Biso   1.000  C
  C79      1.0000 0.36860  0.58330  0.48060  Biso   1.000  C
  C80      1.0000 0.35680  0.64860  0.49850  Biso   1.000  C
  C81      1.0000 0.38480  0.49950  0.34070  Biso   1.000  C
  H73      1.0000 0.38820  0.48410  0.25880  Biso   1.000  H
  C82      1.0000 0.32430  0.76730  0.54310  Biso   1.000  C
  H74      1.0000 0.31280  0.80740  0.55710  Biso   1.000  H
  C83      1.0000 0.38190  0.48340  0.56460  Biso   1.000  C
  H75      1.0000 0.38440  0.45860  0.63530  Biso   1.000  H
  C84      1.0000 0.37190  0.54680  0.58030  Biso   1.000  C
  H76      1.0000 0.36770  0.56250  0.66190  Biso   1.000  H
  C85      1.0000 0.37700  0.56080  0.35660  Biso   1.000  C
  H77      1.0000 0.37740  0.58620  0.28680  Biso   1.000  H
  C86      1.0000 0.38780  0.75100  0.45520  Biso   1.000  C
  H78      1.0000 0.42020  0.77990  0.41140  Biso   1.000  H
  N12      1.0000 0.39790  0.37200  0.31940  Biso   1.000  N
  C87      1.0000 0.39490  0.39780  0.42710  Biso   1.000  C
  H79      1.0000 0.39750  0.37410  0.49940  Biso   1.000  H
  C88      1.0000 0.31680  0.28520  0.25170  Biso   1.000  C
  H80      1.0000 0.26340  0.29940  0.29610  Biso   1.000  H
  H81      1.0000 0.31550  0.30070  0.16570  Biso   1.000  H
  C89      1.0000 0.48320  0.28460  0.25200  Biso   1.000  C
  H82      1.0000 0.48470  0.30010  0.16600  Biso   1.000  H
  H83      1.0000 0.53680  0.29850  0.29620  Biso   1.000  H
  C90      1.0000 0.40050  0.30640  0.31840  Biso   1.000  C
  H84      1.0000 0.40040  0.29170  0.40610  Biso   1.000  H
  Zn3      1.0000 0.18606  0.75000  0.75000  Biso   1.000  Zn
  Cl7      1.0000 0.39049  0.32950  0.80480  Biso   1.000  Cl
  N13      1.0000 0.22240  0.22580  0.88980  Biso   1.000  N
  C91      1.0000 0.09590  0.19140  0.06890  Biso   1.000  C
  H85      1.0000 0.05350  0.18020  0.12980  Biso   1.000  H
  C92      1.0000 0.20590  0.16870  0.91230  Biso   1.000  C
  H86      1.0000 0.23800  0.14060  0.86580  Biso   1.000  H
  C93      1.0000 0.11230  0.96000  0.05560  Biso   1.000  C
  C94      1.0000 0.13140  0.08330  0.01940  Biso   1.000  C
  C95      1.0000 0.14320  0.14860  0.00150  Biso   1.000  C
  C96      1.0000 0.11520  0.99950  0.15930  Biso   1.000  C
  H87      1.0000 0.11180  0.98410  0.24120  Biso   1.000  H
  C97      1.0000 0.17570  0.26730  0.95690  Biso   1.000  C
  H88      1.0000 0.18720  0.30740  0.94290  Biso   1.000  H
  C98      1.0000 0.11810  0.98340  0.93540  Biso   1.000  C
  H89      1.0000 0.11560  0.95860  0.86470  Biso   1.000  H
  C99      1.0000 0.12810  0.04680  0.91970  Biso   1.000  C
  H90      1.0000 0.13230  0.06250  0.83810  Biso   1.000  H
  C100     1.0000 0.12300  0.06080  0.14340  Biso   1.000  C
  H91      1.0000 0.12260  0.08620  0.21320  Biso   1.000  H
  C101     1.0000 0.11220  0.25100  0.04480  Biso   1.000  C
  H92      1.0000 0.07980  0.27990  0.08860  Biso   1.000  H
  N14      1.0000 0.10210  0.87200  0.18060  Biso   1.000  N
  C102     1.0000 0.10510  0.89780  0.07290  Biso   1.000  C
  H93      1.0000 0.10250  0.87410  0.00060  Biso   1.000  H
  C103     1.0000 0.18320  0.78520  0.24830  Biso   1.000  C
  H94      1.0000 0.23660  0.79940  0.20390  Biso   1.000  H
  H95      1.0000 0.18450  0.80070  0.33430  Biso   1.000  H
  C104     1.0000 0.01680  0.78460  0.24800  Biso   1.000  C
  H96      1.0000 0.01530  0.80010  0.33400  Biso   1.000  H
  H97      1.0000 0.96320  0.79850  0.20380  Biso   1.000  H
  C105     1.0000 0.09950  0.80640  0.18160  Biso   1.000  C
  H98      1.0000 0.09960  0.79170  0.09390  Biso   1.000  H
  Cl8      1.0000 0.39049  0.17050  0.69520  Biso   1.000  Cl
  N15      1.0000 0.22240  0.27420  0.61020  Biso   1.000  N
  C106     1.0000 0.09590  0.30860  0.43110  Biso   1.000  C
  H99      1.0000 0.05350  0.31980  0.37020  Biso   1.000  H
  C107     1.0000 0.20590  0.33130  0.58770  Biso   1.000  C
  H100     1.0000 0.23800  0.35940  0.63420  Biso   1.000  H
  C108     1.0000 0.11230  0.54000  0.44440  Biso   1.000  C
  C109     1.0000 0.13140  0.41670  0.48060  Biso   1.000  C
  C110     1.0000 0.14320  0.35140  0.49850  Biso   1.000  C
  C111     1.0000 0.11520  0.50050  0.34070  Biso   1.000  C
  H101     1.0000 0.11180  0.51590  0.25880  Biso   1.000  H
  C112     1.0000 0.17570  0.23270  0.54310  Biso   1.000  C
  H102     1.0000 0.18720  0.19260  0.55710  Biso   1.000  H
  C113     1.0000 0.11810  0.51660  0.56460  Biso   1.000  C
  H103     1.0000 0.11560  0.54140  0.63530  Biso   1.000  H
  C114     1.0000 0.12810  0.45320  0.58030  Biso   1.000  C
  H104     1.0000 0.13230  0.43750  0.66190  Biso   1.000  H
  C115     1.0000 0.12300  0.43920  0.35660  Biso   1.000  C
  H105     1.0000 0.12260  0.41380  0.28680  Biso   1.000  H
  C116     1.0000 0.11220  0.24900  0.45520  Biso   1.000  C
  H106     1.0000 0.07980  0.22010  0.41140  Biso   1.000  H
  N16      1.0000 0.10210  0.62800  0.31940  Biso   1.000  N
  C117     1.0000 0.10510  0.60220  0.42710  Biso   1.000  C
  H107     1.0000 0.10250  0.62590  0.49940  Biso   1.000  H
  C118     1.0000 0.18320  0.71480  0.25170  Biso   1.000  C
  H108     1.0000 0.23660  0.70060  0.29610  Biso   1.000  H
  H109     1.0000 0.18450  0.69930  0.16570  Biso   1.000  H
  C119     1.0000 0.01680  0.71540  0.25200  Biso   1.000  C
  H110     1.0000 0.01530  0.69990  0.16600  Biso   1.000  H
  H111     1.0000 0.96320  0.70150  0.29620  Biso   1.000  H
  C120     1.0000 0.09950  0.69360  0.31840  Biso   1.000  C
  H112     1.0000 0.09960  0.70830  0.40610  Biso   1.000  H
  Zn4      1.0000 0.31394  0.25000  0.75000  Biso   1.000  Zn
