data_image0
_cell_length_a       16.789
_cell_length_b       16.789
_cell_length_c       15.144
_cell_angle_alpha    90
_cell_angle_beta     90
_cell_angle_gamma    120

_symmetry_space_group_name_H-M    "P 1"
_symmetry_int_tables_number       1

loop_
  _symmetry_equiv_pos_as_xyz
  'x, y, z'

loop_
  _atom_site_label
  _atom_site_occupancy
  _atom_site_fract_x
  _atom_site_fract_y
  _atom_site_fract_z
  _atom_site_thermal_displace_type
  _atom_site_B_iso_or_equiv
  _atom_site_type_symbol
  C1       1.0000 0.48867  0.70243  0.61360  Biso   1.000  C
  C2       1.0000 0.58886  0.73407  0.61970  Biso   1.000  C
  C3       1.0000 0.64658  0.77540  0.54880  Biso   1.000  C
  H1       1.0000 0.62270  0.78320  0.49620  Biso   1.000  H
  C4       1.0000 0.73880  0.80500  0.55490  Biso   1.000  C
  H2       1.0000 0.77750  0.83320  0.50690  Biso   1.000  H
  C5       1.0000 0.77304  0.79261  0.63190  Biso   1.000  C
  C6       1.0000 0.71810  0.75170  0.70300  Biso   1.000  C
  H3       1.0000 0.74260  0.74370  0.75510  Biso   1.000  H
  C7       1.0000 0.62520  0.72230  0.69670  Biso   1.000  C
  H4       1.0000 0.58710  0.69440  0.74500  Biso   1.000  H
  C8       1.0000 0.93048  0.91056  0.63466  Biso   1.000  C
  C9       1.0000 0.90876  0.97975  0.63455  Biso   1.000  C
  H5       1.0000 0.84790  0.96620  0.63440  Biso   1.000  H
  O1       1.0000 0.43896  0.66585  0.67762  Biso   1.000  O
  O2       1.0000 0.46197  0.71535  0.53929  Biso   1.000  O
  O3       1.0000 0.86607  0.81869  0.63943  Biso   1.000  O
  C10      1.0000 0.29757  0.78624  0.61360  Biso   1.000  C
  C11      1.0000 0.26593  0.85479  0.61970  Biso   1.000  C
  C12      1.0000 0.22460  0.87118  0.54880  Biso   1.000  C
  H6       1.0000 0.21680  0.83950  0.49620  Biso   1.000  H
  C13      1.0000 0.19500  0.93380  0.55490  Biso   1.000  C
  H7       1.0000 0.16680  0.94430  0.50690  Biso   1.000  H
  C14      1.0000 0.20739  0.98043  0.63190  Biso   1.000  C
  C15      1.0000 0.24830  0.96640  0.70300  Biso   1.000  C
  H8       1.0000 0.25630  0.99890  0.75510  Biso   1.000  H
  C16      1.0000 0.27770  0.90290  0.69670  Biso   1.000  C
  H9       1.0000 0.30560  0.89270  0.74500  Biso   1.000  H
  C17      1.0000 0.08944  0.01992  0.63466  Biso   1.000  C
  C18      1.0000 0.02025  0.92901  0.63455  Biso   1.000  C
  H10      1.0000 0.03380  0.88170  0.63440  Biso   1.000  H
  O4       1.0000 0.33415  0.77311  0.67762  Biso   1.000  O
  O5       1.0000 0.28465  0.74662  0.53929  Biso   1.000  O
  O6       1.0000 0.18131  0.04738  0.63943  Biso   1.000  O
  C19      1.0000 0.21376  0.51133  0.61360  Biso   1.000  C
  C20      1.0000 0.14521  0.41114  0.61970  Biso   1.000  C
  C21      1.0000 0.12882  0.35342  0.54880  Biso   1.000  C
  H11      1.0000 0.16050  0.37730  0.49620  Biso   1.000  H
  C22      1.0000 0.06620  0.26120  0.55490  Biso   1.000  C
  H12      1.0000 0.05570  0.22250  0.50690  Biso   1.000  H
  C23      1.0000 0.01957  0.22696  0.63190  Biso   1.000  C
  C24      1.0000 0.03360  0.28190  0.70300  Biso   1.000  C
  H13      1.0000 0.00110  0.25740  0.75510  Biso   1.000  H
  C25      1.0000 0.09710  0.37480  0.69670  Biso   1.000  C
  H14      1.0000 0.10730  0.41290  0.74500  Biso   1.000  H
  C26      1.0000 0.98008  0.06952  0.63466  Biso   1.000  C
  C27      1.0000 0.07099  0.09124  0.63455  Biso   1.000  C
  H15      1.0000 0.11830  0.15210  0.63440  Biso   1.000  H
  O7       1.0000 0.22689  0.56104  0.67762  Biso   1.000  O
  O8       1.0000 0.25338  0.53803  0.53929  Biso   1.000  O
  O9       1.0000 0.95262  0.13393  0.63943  Biso   1.000  O
  C28      1.0000 0.29757  0.51133  0.88640  Biso   1.000  C
  C29      1.0000 0.26593  0.41114  0.88030  Biso   1.000  C
  C30      1.0000 0.22460  0.35342  0.95120  Biso   1.000  C
  H16      1.0000 0.21680  0.37730  0.00380  Biso   1.000  H
  C31      1.0000 0.19500  0.26120  0.94510  Biso   1.000  C
  H17      1.0000 0.16680  0.22250  0.99310  Biso   1.000  H
  C32      1.0000 0.20739  0.22696  0.86810  Biso   1.000  C
  C33      1.0000 0.24830  0.28190  0.79700  Biso   1.000  C
  H18      1.0000 0.25630  0.25740  0.74490  Biso   1.000  H
  C34      1.0000 0.27770  0.37480  0.80330  Biso   1.000  C
  H19      1.0000 0.30560  0.41290  0.75500  Biso   1.000  H
  C35      1.0000 0.08944  0.06952  0.86534  Biso   1.000  C
  C36      1.0000 0.02025  0.09124  0.86545  Biso   1.000  C
  H20      1.0000 0.03380  0.15210  0.86560  Biso   1.000  H
  O10      1.0000 0.33415  0.56104  0.82238  Biso   1.000  O
  O11      1.0000 0.28465  0.53803  0.96071  Biso   1.000  O
  O12      1.0000 0.18131  0.13393  0.86057  Biso   1.000  O
  C37      1.0000 0.21376  0.70243  0.88640  Biso   1.000  C
  C38      1.0000 0.14521  0.73407  0.88030  Biso   1.000  C
  C39      1.0000 0.12882  0.77540  0.95120  Biso   1.000  C
  H21      1.0000 0.16050  0.78320  0.00380  Biso   1.000  H
  C40      1.0000 0.06620  0.80500  0.94510  Biso   1.000  C
  H22      1.0000 0.05570  0.83320  0.99310  Biso   1.000  H
  C41      1.0000 0.01957  0.79261  0.86810  Biso   1.000  C
  C42      1.0000 0.03360  0.75170  0.79700  Biso   1.000  C
  H23      1.0000 0.00110  0.74370  0.74490  Biso   1.000  H
  C43      1.0000 0.09710  0.72230  0.80330  Biso   1.000  C
  H24      1.0000 0.10730  0.69440  0.75500  Biso   1.000  H
  C44      1.0000 0.98008  0.91056  0.86534  Biso   1.000  C
  C45      1.0000 0.07099  0.97975  0.86545  Biso   1.000  C
  H25      1.0000 0.11830  0.96620  0.86560  Biso   1.000  H
  O13      1.0000 0.22689  0.66585  0.82238  Biso   1.000  O
  O14      1.0000 0.25338  0.71535  0.96071  Biso   1.000  O
  O15      1.0000 0.95262  0.81869  0.86057  Biso   1.000  O
  C46      1.0000 0.48867  0.78624  0.88640  Biso   1.000  C
  C47      1.0000 0.58886  0.85479  0.88030  Biso   1.000  C
  C48      1.0000 0.64658  0.87118  0.95120  Biso   1.000  C
  H26      1.0000 0.62270  0.83950  0.00380  Biso   1.000  H
  C49      1.0000 0.73880  0.93380  0.94510  Biso   1.000  C
  H27      1.0000 0.77750  0.94430  0.99310  Biso   1.000  H
  C50      1.0000 0.77304  0.98043  0.86810  Biso   1.000  C
  C51      1.0000 0.71810  0.96640  0.79700  Biso   1.000  C
  H28      1.0000 0.74260  0.99890  0.74490  Biso   1.000  H
  C52      1.0000 0.62520  0.90290  0.80330  Biso   1.000  C
  H29      1.0000 0.58710  0.89270  0.75500  Biso   1.000  H
  C53      1.0000 0.93048  0.01992  0.86534  Biso   1.000  C
  C54      1.0000 0.90876  0.92901  0.86545  Biso   1.000  C
  H30      1.0000 0.84790  0.88170  0.86560  Biso   1.000  H
  O16      1.0000 0.43896  0.77311  0.82238  Biso   1.000  O
  O17      1.0000 0.46197  0.74662  0.96071  Biso   1.000  O
  O18      1.0000 0.86607  0.04738  0.86057  Biso   1.000  O
  Co1      1.0000 0.33333  0.66667  0.75000  Biso   1.000  Co
  Co2      1.0000 0.33333  0.66667  0.51195  Biso   1.000  Co
  Co3      1.0000 0.33333  0.66667  0.98805  Biso   1.000  Co
  C55      1.0000 0.51133  0.29757  0.38640  Biso   1.000  C
  C56      1.0000 0.41114  0.26593  0.38030  Biso   1.000  C
  C57      1.0000 0.35342  0.22460  0.45120  Biso   1.000  C
  H31      1.0000 0.37730  0.21680  0.50380  Biso   1.000  H
  C58      1.0000 0.26120  0.19500  0.44510  Biso   1.000  C
  H32      1.0000 0.22250  0.16680  0.49310  Biso   1.000  H
  C59      1.0000 0.22696  0.20739  0.36810  Biso   1.000  C
  C60      1.0000 0.28190  0.24830  0.29700  Biso   1.000  C
  H33      1.0000 0.25740  0.25630  0.24490  Biso   1.000  H
  C61      1.0000 0.37480  0.27770  0.30330  Biso   1.000  C
  H34      1.0000 0.41290  0.30560  0.25500  Biso   1.000  H
  C62      1.0000 0.06952  0.08944  0.36534  Biso   1.000  C
  C63      1.0000 0.09124  0.02025  0.36545  Biso   1.000  C
  H35      1.0000 0.15210  0.03380  0.36560  Biso   1.000  H
  O19      1.0000 0.56104  0.33415  0.32238  Biso   1.000  O
  O20      1.0000 0.53803  0.28465  0.46071  Biso   1.000  O
  O21      1.0000 0.13393  0.18131  0.36057  Biso   1.000  O
  C64      1.0000 0.70243  0.21376  0.38640  Biso   1.000  C
  C65      1.0000 0.73407  0.14521  0.38030  Biso   1.000  C
  C66      1.0000 0.77540  0.12882  0.45120  Biso   1.000  C
  H36      1.0000 0.78320  0.16050  0.50380  Biso   1.000  H
  C67      1.0000 0.80500  0.06620  0.44510  Biso   1.000  C
  H37      1.0000 0.83320  0.05570  0.49310  Biso   1.000  H
  C68      1.0000 0.79261  0.01957  0.36810  Biso   1.000  C
  C69      1.0000 0.75170  0.03360  0.29700  Biso   1.000  C
  H38      1.0000 0.74370  0.00110  0.24490  Biso   1.000  H
  C70      1.0000 0.72230  0.09710  0.30330  Biso   1.000  C
  H39      1.0000 0.69440  0.10730  0.25500  Biso   1.000  H
  C71      1.0000 0.91056  0.98008  0.36534  Biso   1.000  C
  C72      1.0000 0.97975  0.07099  0.36545  Biso   1.000  C
  H40      1.0000 0.96620  0.11830  0.36560  Biso   1.000  H
  O22      1.0000 0.66585  0.22689  0.32238  Biso   1.000  O
  O23      1.0000 0.71535  0.25338  0.46071  Biso   1.000  O
  O24      1.0000 0.81869  0.95262  0.36057  Biso   1.000  O
  C73      1.0000 0.78624  0.48867  0.38640  Biso   1.000  C
  C74      1.0000 0.85479  0.58886  0.38030  Biso   1.000  C
  C75      1.0000 0.87118  0.64658  0.45120  Biso   1.000  C
  H41      1.0000 0.83950  0.62270  0.50380  Biso   1.000  H
  C76      1.0000 0.93380  0.73880  0.44510  Biso   1.000  C
  H42      1.0000 0.94430  0.77750  0.49310  Biso   1.000  H
  C77      1.0000 0.98043  0.77304  0.36810  Biso   1.000  C
  C78      1.0000 0.96640  0.71810  0.29700  Biso   1.000  C
  H43      1.0000 0.99890  0.74260  0.24490  Biso   1.000  H
  C79      1.0000 0.90290  0.62520  0.30330  Biso   1.000  C
  H44      1.0000 0.89270  0.58710  0.25500  Biso   1.000  H
  C80      1.0000 0.01992  0.93048  0.36534  Biso   1.000  C
  C81      1.0000 0.92901  0.90876  0.36545  Biso   1.000  C
  H45      1.0000 0.88170  0.84790  0.36560  Biso   1.000  H
  O25      1.0000 0.77311  0.43896  0.32238  Biso   1.000  O
  O26      1.0000 0.74662  0.46197  0.46071  Biso   1.000  O
  O27      1.0000 0.04738  0.86607  0.36057  Biso   1.000  O
  C82      1.0000 0.70243  0.48867  0.11360  Biso   1.000  C
  C83      1.0000 0.73407  0.58886  0.11970  Biso   1.000  C
  C84      1.0000 0.77540  0.64658  0.04880  Biso   1.000  C
  H46      1.0000 0.78320  0.62270  0.99620  Biso   1.000  H
  C85      1.0000 0.80500  0.73880  0.05490  Biso   1.000  C
  H47      1.0000 0.83320  0.77750  0.00690  Biso   1.000  H
  C86      1.0000 0.79261  0.77304  0.13190  Biso   1.000  C
  C87      1.0000 0.75170  0.71810  0.20300  Biso   1.000  C
  H48      1.0000 0.74370  0.74260  0.25510  Biso   1.000  H
  C88      1.0000 0.72230  0.62520  0.19670  Biso   1.000  C
  H49      1.0000 0.69440  0.58710  0.24500  Biso   1.000  H
  C89      1.0000 0.91056  0.93048  0.13466  Biso   1.000  C
  C90      1.0000 0.97975  0.90876  0.13455  Biso   1.000  C
  H50      1.0000 0.96620  0.84790  0.13440  Biso   1.000  H
  O28      1.0000 0.66585  0.43896  0.17762  Biso   1.000  O
  O29      1.0000 0.71535  0.46197  0.03929  Biso   1.000  O
  O30      1.0000 0.81869  0.86607  0.13943  Biso   1.000  O
  C91      1.0000 0.78624  0.29757  0.11360  Biso   1.000  C
  C92      1.0000 0.85479  0.26593  0.11970  Biso   1.000  C
  C93      1.0000 0.87118  0.22460  0.04880  Biso   1.000  C
  H51      1.0000 0.83950  0.21680  0.99620  Biso   1.000  H
  C94      1.0000 0.93380  0.19500  0.05490  Biso   1.000  C
  H52      1.0000 0.94430  0.16680  0.00690  Biso   1.000  H
  C95      1.0000 0.98043  0.20739  0.13190  Biso   1.000  C
  C96      1.0000 0.96640  0.24830  0.20300  Biso   1.000  C
  H53      1.0000 0.99890  0.25630  0.25510  Biso   1.000  H
  C97      1.0000 0.90290  0.27770  0.19670  Biso   1.000  C
  H54      1.0000 0.89270  0.30560  0.24500  Biso   1.000  H
  C98      1.0000 0.01992  0.08944  0.13466  Biso   1.000  C
  C99      1.0000 0.92901  0.02025  0.13455  Biso   1.000  C
  H55      1.0000 0.88170  0.03380  0.13440  Biso   1.000  H
  O31      1.0000 0.77311  0.33415  0.17762  Biso   1.000  O
  O32      1.0000 0.74662  0.28465  0.03929  Biso   1.000  O
  O33      1.0000 0.04738  0.18131  0.13943  Biso   1.000  O
  C100     1.0000 0.51133  0.21376  0.11360  Biso   1.000  C
  C101     1.0000 0.41114  0.14521  0.11970  Biso   1.000  C
  C102     1.0000 0.35342  0.12882  0.04880  Biso   1.000  C
  H56      1.0000 0.37730  0.16050  0.99620  Biso   1.000  H
  C103     1.0000 0.26120  0.06620  0.05490  Biso   1.000  C
  H57      1.0000 0.22250  0.05570  0.00690  Biso   1.000  H
  C104     1.0000 0.22696  0.01957  0.13190  Biso   1.000  C
  C105     1.0000 0.28190  0.03360  0.20300  Biso   1.000  C
  H58      1.0000 0.25740  0.00110  0.25510  Biso   1.000  H
  C106     1.0000 0.37480  0.09710  0.19670  Biso   1.000  C
  H59      1.0000 0.41290  0.10730  0.24500  Biso   1.000  H
  C107     1.0000 0.06952  0.98008  0.13466  Biso   1.000  C
  C108     1.0000 0.09124  0.07099  0.13455  Biso   1.000  C
  H60      1.0000 0.15210  0.11830  0.13440  Biso   1.000  H
  O34      1.0000 0.56104  0.22689  0.17762  Biso   1.000  O
  O35      1.0000 0.53803  0.25338  0.03929  Biso   1.000  O
  O36      1.0000 0.13393  0.95262  0.13943  Biso   1.000  O
  Co4      1.0000 0.66667  0.33333  0.25000  Biso   1.000  Co
  Co5      1.0000 0.66667  0.33333  0.48805  Biso   1.000  Co
  Co6      1.0000 0.66667  0.33333  0.01195  Biso   1.000  Co
