data_image0
_cell_length_a       11.7126
_cell_length_b       15.7432
_cell_length_c       29.3424
_cell_angle_alpha    90
_cell_angle_beta     90.126
_cell_angle_gamma    90

_symmetry_space_group_name_H-M    "P 1"
_symmetry_int_tables_number       1

loop_
  _symmetry_equiv_pos_as_xyz
  'x, y, z'

loop_
  _atom_site_label
  _atom_site_occupancy
  _atom_site_fract_x
  _atom_site_fract_y
  _atom_site_fract_z
  _atom_site_thermal_displace_type
  _atom_site_B_iso_or_equiv
  _atom_site_type_symbol
  Zn1      1.0000 0.47450  0.63260  0.40840  Biso   1.000  Zn
  C1       1.0000 0.43310  0.80040  0.82970  Biso   1.000  C
  O1       1.0000 0.34920  0.77120  0.84830  Biso   1.000  O
  N1       1.0000 0.60040  0.53650  0.41350  Biso   1.000  N
  C2       1.0000 0.63250  0.51230  0.45520  Biso   1.000  C
  C3       1.0000 0.65000  0.49740  0.38000  Biso   1.000  C
  N2       1.0000 0.32470  0.56690  0.41600  Biso   1.000  N
  O2       1.0000 0.52180  0.82570  0.84680  Biso   1.000  O
  C4       1.0000 0.45350  0.78860  0.77710  Biso   1.000  C
  C5       1.0000 0.73460  0.42970  0.38250  Biso   1.000  C
  O3       1.0000 0.50540  0.68090  0.46520  Biso   1.000  O
  C6       1.0000 0.53470  0.81000  0.75190  Biso   1.000  C
  C7       1.0000 0.72780  0.44230  0.46370  Biso   1.000  C
  C8       1.0000 0.76310  0.41850  0.42370  Biso   1.000  C
  C9       1.0000 0.36800  0.74980  0.70390  Biso   1.000  C
  C10      1.0000 0.86280  0.37370  0.42110  Biso   1.000  C
  C11      1.0000 0.55010  0.80160  0.70530  Biso   1.000  C
  C12      1.0000 0.96110  0.40650  0.39950  Biso   1.000  C
  C13      1.0000 0.46460  0.78130  0.68320  Biso   1.000  C
  C14      1.0000 0.99340  0.43070  0.44800  Biso   1.000  C
  C15      1.0000 0.45250  0.76640  0.63150  Biso   1.000  C
  C16      1.0000 0.11400  0.48210  0.43000  Biso   1.000  C
  C17      1.0000 0.35170  0.79240  0.60410  Biso   1.000  C
  C18      1.0000 0.12570  0.57220  0.41870  Biso   1.000  C
  C19      1.0000 0.53290  0.72780  0.60400  Biso   1.000  C
  C20      1.0000 0.22410  0.60850  0.41410  Biso   1.000  C
  C21      1.0000 0.33130  0.78400  0.55940  Biso   1.000  C
  C22      1.0000 0.21720  0.42730  0.42740  Biso   1.000  C
  C23      1.0000 0.43280  0.72680  0.48800  Biso   1.000  C
  C24      1.0000 0.42570  0.74840  0.53670  Biso   1.000  C
  C25      1.0000 0.31680  0.47430  0.42540  Biso   1.000  C
  C26      1.0000 0.53130  0.71980  0.55550  Biso   1.000  C
  O4       1.0000 0.34280  0.74630  0.46530  Biso   1.000  O
  C27      1.0000 0.35680  0.76540  0.75620  Biso   1.000  C
  Zn2      1.0000 0.47450  0.86740  0.90840  Biso   1.000  Zn
  C28      1.0000 0.43310  0.69960  0.32970  Biso   1.000  C
  O5       1.0000 0.34920  0.72880  0.34830  Biso   1.000  O
  N3       1.0000 0.60040  0.96350  0.91350  Biso   1.000  N
  C29      1.0000 0.63250  0.98770  0.95520  Biso   1.000  C
  C30      1.0000 0.65000  0.00260  0.88000  Biso   1.000  C
  N4       1.0000 0.32470  0.93310  0.91600  Biso   1.000  N
  O6       1.0000 0.52180  0.67430  0.34680  Biso   1.000  O
  C31      1.0000 0.45350  0.71140  0.27710  Biso   1.000  C
  C32      1.0000 0.73460  0.07030  0.88250  Biso   1.000  C
  O7       1.0000 0.50540  0.81910  0.96520  Biso   1.000  O
  C33      1.0000 0.53470  0.69000  0.25190  Biso   1.000  C
  C34      1.0000 0.72780  0.05770  0.96370  Biso   1.000  C
  C35      1.0000 0.76310  0.08150  0.92370  Biso   1.000  C
  C36      1.0000 0.36800  0.75020  0.20390  Biso   1.000  C
  C37      1.0000 0.86280  0.12630  0.92110  Biso   1.000  C
  C38      1.0000 0.55010  0.69840  0.20530  Biso   1.000  C
  C39      1.0000 0.96110  0.09350  0.89950  Biso   1.000  C
  C40      1.0000 0.46460  0.71870  0.18320  Biso   1.000  C
  C41      1.0000 0.99340  0.06930  0.94800  Biso   1.000  C
  C42      1.0000 0.45250  0.73360  0.13150  Biso   1.000  C
  C43      1.0000 0.11400  0.01790  0.93000  Biso   1.000  C
  C44      1.0000 0.35170  0.70760  0.10410  Biso   1.000  C
  C45      1.0000 0.12570  0.92780  0.91870  Biso   1.000  C
  C46      1.0000 0.53290  0.77220  0.10400  Biso   1.000  C
  C47      1.0000 0.22410  0.89150  0.91410  Biso   1.000  C
  C48      1.0000 0.33130  0.71600  0.05940  Biso   1.000  C
  C49      1.0000 0.21720  0.07270  0.92740  Biso   1.000  C
  C50      1.0000 0.43280  0.77320  0.98800  Biso   1.000  C
  C51      1.0000 0.42570  0.75160  0.03670  Biso   1.000  C
  C52      1.0000 0.31680  0.02570  0.92540  Biso   1.000  C
  C53      1.0000 0.53130  0.78020  0.05550  Biso   1.000  C
  O8       1.0000 0.34280  0.75370  0.96530  Biso   1.000  O
  C54      1.0000 0.35680  0.73460  0.25620  Biso   1.000  C
  C55      1.0000 0.27490  0.11480  0.41530  Biso   1.000  C
  Zn3      1.0000 0.02540  0.13290  0.40850  Biso   1.000  Zn
  C56      1.0000 0.18160  0.97330  0.42180  Biso   1.000  C
  C57      1.0000 0.39290  0.98130  0.43180  Biso   1.000  C
  C58      1.0000 0.37320  0.07300  0.42250  Biso   1.000  C
  C59      1.0000 0.29820  0.94140  0.42900  Biso   1.000  C
  C60      1.0000 0.75080  0.92230  0.42130  Biso   1.000  C
  C61      1.0000 0.67490  0.88080  0.42300  Biso   1.000  C
  C62      1.0000 0.58020  0.90420  0.41920  Biso   1.000  C
  C63      1.0000 0.50620  0.93340  0.44280  Biso   1.000  C
  C64      1.0000 0.77020  0.96220  0.46320  Biso   1.000  C
  C65      1.0000 0.86820  0.01910  0.45690  Biso   1.000  C
  C66      1.0000 0.86340  0.00970  0.37280  Biso   1.000  C
  C67      1.0000 0.77650  0.94060  0.37780  Biso   1.000  C
  O9       1.0000 0.97970  0.32730  0.84750  Biso   1.000  O
  C68      1.0000 0.06020  0.30000  0.83020  Biso   1.000  C
  N5       1.0000 0.17350  0.06820  0.41510  Biso   1.000  N
  O10      1.0000 0.15160  0.27260  0.84760  Biso   1.000  O
  C69      1.0000 0.04670  0.28840  0.77740  Biso   1.000  C
  O11      1.0000 0.99320  0.18200  0.46630  Biso   1.000  O
  N6       1.0000 0.90040  0.03460  0.41420  Biso   1.000  N
  C70      1.0000 0.96200  0.30720  0.75320  Biso   1.000  C
  O12      1.0000 0.15900  0.24830  0.46530  Biso   1.000  O
  C71      1.0000 0.14450  0.26320  0.75660  Biso   1.000  C
  C72      1.0000 0.94760  0.29980  0.70470  Biso   1.000  C
  C73      1.0000 0.13010  0.24800  0.70170  Biso   1.000  C
  C74      1.0000 0.03920  0.28250  0.68310  Biso   1.000  C
  C75      1.0000 0.05440  0.26930  0.63190  Biso   1.000  C
  C76      1.0000 0.96510  0.22850  0.60480  Biso   1.000  C
  C77      1.0000 0.15090  0.29520  0.60580  Biso   1.000  C
  C78      1.0000 0.96230  0.21940  0.55650  Biso   1.000  C
  C79      1.0000 0.16540  0.28650  0.55970  Biso   1.000  C
  C80      1.0000 0.06790  0.22790  0.48640  Biso   1.000  C
  C81      1.0000 0.07570  0.24600  0.53610  Biso   1.000  C
  C82      1.0000 0.27490  0.38520  0.91530  Biso   1.000  C
  Zn4      1.0000 0.02540  0.36710  0.90850  Biso   1.000  Zn
  C83      1.0000 0.18160  0.52670  0.92180  Biso   1.000  C
  C84      1.0000 0.39290  0.51870  0.93180  Biso   1.000  C
  C85      1.0000 0.37320  0.42700  0.92250  Biso   1.000  C
  C86      1.0000 0.29820  0.55860  0.92900  Biso   1.000  C
  C87      1.0000 0.75080  0.57770  0.92130  Biso   1.000  C
  C88      1.0000 0.67490  0.61920  0.92300  Biso   1.000  C
  C89      1.0000 0.58020  0.59580  0.91920  Biso   1.000  C
  C90      1.0000 0.50620  0.56660  0.94280  Biso   1.000  C
  C91      1.0000 0.77020  0.53780  0.96320  Biso   1.000  C
  C92      1.0000 0.86820  0.48090  0.95690  Biso   1.000  C
  C93      1.0000 0.86340  0.49030  0.87280  Biso   1.000  C
  C94      1.0000 0.77650  0.55940  0.87780  Biso   1.000  C
  O13      1.0000 0.97970  0.17270  0.34750  Biso   1.000  O
  C95      1.0000 0.06020  0.20000  0.33020  Biso   1.000  C
  N7       1.0000 0.17350  0.43180  0.91510  Biso   1.000  N
  O14      1.0000 0.15160  0.22740  0.34760  Biso   1.000  O
  C96      1.0000 0.04670  0.21160  0.27740  Biso   1.000  C
  O15      1.0000 0.99320  0.31800  0.96630  Biso   1.000  O
  N8       1.0000 0.90040  0.46540  0.91420  Biso   1.000  N
  C97      1.0000 0.96200  0.19280  0.25320  Biso   1.000  C
  O16      1.0000 0.15900  0.25170  0.96530  Biso   1.000  O
  C98      1.0000 0.14450  0.23680  0.25660  Biso   1.000  C
  C99      1.0000 0.94760  0.20020  0.20470  Biso   1.000  C
  C100     1.0000 0.13010  0.25200  0.20170  Biso   1.000  C
  C101     1.0000 0.03920  0.21750  0.18310  Biso   1.000  C
  C102     1.0000 0.05440  0.23070  0.13190  Biso   1.000  C
  C103     1.0000 0.96510  0.27150  0.10480  Biso   1.000  C
  C104     1.0000 0.15090  0.20480  0.10580  Biso   1.000  C
  C105     1.0000 0.96230  0.28060  0.05650  Biso   1.000  C
  C106     1.0000 0.16540  0.21350  0.05970  Biso   1.000  C
  C107     1.0000 0.06790  0.27210  0.98640  Biso   1.000  C
  C108     1.0000 0.07570  0.25400  0.03610  Biso   1.000  C
  Zn5      1.0000 0.52550  0.13260  0.09160  Biso   1.000  Zn
  C109     1.0000 0.56690  0.30040  0.67030  Biso   1.000  C
  O17      1.0000 0.65080  0.27120  0.65170  Biso   1.000  O
  N9       1.0000 0.39960  0.03650  0.08650  Biso   1.000  N
  C110     1.0000 0.36750  0.01230  0.04480  Biso   1.000  C
  C111     1.0000 0.35000  0.99740  0.12000  Biso   1.000  C
  N10      1.0000 0.67530  0.06690  0.08400  Biso   1.000  N
  O18      1.0000 0.47820  0.32570  0.65320  Biso   1.000  O
  C112     1.0000 0.54650  0.28860  0.72290  Biso   1.000  C
  C113     1.0000 0.26540  0.92970  0.11750  Biso   1.000  C
  O19      1.0000 0.49460  0.18090  0.03480  Biso   1.000  O
  C114     1.0000 0.46530  0.31000  0.74810  Biso   1.000  C
  C115     1.0000 0.27220  0.94230  0.03630  Biso   1.000  C
  C116     1.0000 0.23690  0.91850  0.07630  Biso   1.000  C
  C117     1.0000 0.63200  0.24980  0.79610  Biso   1.000  C
  C118     1.0000 0.13720  0.87370  0.07890  Biso   1.000  C
  C119     1.0000 0.44990  0.30160  0.79470  Biso   1.000  C
  C120     1.0000 0.03890  0.90650  0.10050  Biso   1.000  C
  C121     1.0000 0.53540  0.28130  0.81680  Biso   1.000  C
  C122     1.0000 0.00660  0.93070  0.05200  Biso   1.000  C
  C123     1.0000 0.54750  0.26640  0.86850  Biso   1.000  C
  C124     1.0000 0.88600  0.98210  0.07000  Biso   1.000  C
  C125     1.0000 0.64830  0.29240  0.89590  Biso   1.000  C
  C126     1.0000 0.87430  0.07220  0.08130  Biso   1.000  C
  C127     1.0000 0.46710  0.22780  0.89600  Biso   1.000  C
  C128     1.0000 0.77590  0.10850  0.08590  Biso   1.000  C
  C129     1.0000 0.66870  0.28400  0.94060  Biso   1.000  C
  C130     1.0000 0.78280  0.92730  0.07260  Biso   1.000  C
  C131     1.0000 0.56720  0.22680  0.01200  Biso   1.000  C
  C132     1.0000 0.57430  0.24840  0.96330  Biso   1.000  C
  C133     1.0000 0.68320  0.97430  0.07460  Biso   1.000  C
  C134     1.0000 0.46870  0.21980  0.94450  Biso   1.000  C
  O20      1.0000 0.65720  0.24630  0.03470  Biso   1.000  O
  C135     1.0000 0.64320  0.26540  0.74380  Biso   1.000  C
  Zn6      1.0000 0.52550  0.36740  0.59160  Biso   1.000  Zn
  C136     1.0000 0.56690  0.19960  0.17030  Biso   1.000  C
  O21      1.0000 0.65080  0.22880  0.15170  Biso   1.000  O
  N11      1.0000 0.39960  0.46350  0.58650  Biso   1.000  N
  C137     1.0000 0.36750  0.48770  0.54480  Biso   1.000  C
  C138     1.0000 0.35000  0.50260  0.62000  Biso   1.000  C
  N12      1.0000 0.67530  0.43310  0.58400  Biso   1.000  N
  O22      1.0000 0.47820  0.17430  0.15320  Biso   1.000  O
  C139     1.0000 0.54650  0.21140  0.22290  Biso   1.000  C
  C140     1.0000 0.26540  0.57030  0.61750  Biso   1.000  C
  O23      1.0000 0.49460  0.31910  0.53480  Biso   1.000  O
  C141     1.0000 0.46530  0.19000  0.24810  Biso   1.000  C
  C142     1.0000 0.27220  0.55770  0.53630  Biso   1.000  C
  C143     1.0000 0.23690  0.58150  0.57630  Biso   1.000  C
  C144     1.0000 0.63200  0.25020  0.29610  Biso   1.000  C
  C145     1.0000 0.13720  0.62630  0.57890  Biso   1.000  C
  C146     1.0000 0.44990  0.19840  0.29470  Biso   1.000  C
  C147     1.0000 0.03890  0.59350  0.60050  Biso   1.000  C
  C148     1.0000 0.53540  0.21870  0.31680  Biso   1.000  C
  C149     1.0000 0.00660  0.56930  0.55200  Biso   1.000  C
  C150     1.0000 0.54750  0.23360  0.36850  Biso   1.000  C
  C151     1.0000 0.88600  0.51790  0.57000  Biso   1.000  C
  C152     1.0000 0.64830  0.20760  0.39590  Biso   1.000  C
  C153     1.0000 0.87430  0.42780  0.58130  Biso   1.000  C
  C154     1.0000 0.46710  0.27220  0.39600  Biso   1.000  C
  C155     1.0000 0.77590  0.39150  0.58590  Biso   1.000  C
  C156     1.0000 0.66870  0.21600  0.44060  Biso   1.000  C
  C157     1.0000 0.78280  0.57270  0.57260  Biso   1.000  C
  C158     1.0000 0.56720  0.27320  0.51200  Biso   1.000  C
  C159     1.0000 0.57430  0.25160  0.46330  Biso   1.000  C
  C160     1.0000 0.68320  0.52570  0.57460  Biso   1.000  C
  C161     1.0000 0.46870  0.28020  0.44450  Biso   1.000  C
  O24      1.0000 0.65720  0.25370  0.53470  Biso   1.000  O
  C162     1.0000 0.64320  0.23460  0.24380  Biso   1.000  C
  C163     1.0000 0.72510  0.61480  0.08470  Biso   1.000  C
  Zn7      1.0000 0.97460  0.63290  0.09150  Biso   1.000  Zn
  C164     1.0000 0.81840  0.47330  0.07820  Biso   1.000  C
  C165     1.0000 0.60710  0.48130  0.06820  Biso   1.000  C
  C166     1.0000 0.62680  0.57300  0.07750  Biso   1.000  C
  C167     1.0000 0.70180  0.44140  0.07100  Biso   1.000  C
  C168     1.0000 0.24920  0.42230  0.07870  Biso   1.000  C
  C169     1.0000 0.32510  0.38080  0.07700  Biso   1.000  C
  C170     1.0000 0.41980  0.40420  0.08080  Biso   1.000  C
  C171     1.0000 0.49380  0.43340  0.05720  Biso   1.000  C
  C172     1.0000 0.22980  0.46220  0.03680  Biso   1.000  C
  C173     1.0000 0.13180  0.51910  0.04310  Biso   1.000  C
  C174     1.0000 0.13660  0.50970  0.12720  Biso   1.000  C
  C175     1.0000 0.22350  0.44060  0.12220  Biso   1.000  C
  O25      1.0000 0.02030  0.82730  0.65250  Biso   1.000  O
  C176     1.0000 0.93980  0.80000  0.66980  Biso   1.000  C
  N13      1.0000 0.82650  0.56820  0.08490  Biso   1.000  N
  O26      1.0000 0.84840  0.77260  0.65240  Biso   1.000  O
  C177     1.0000 0.95330  0.78840  0.72260  Biso   1.000  C
  O27      1.0000 0.00680  0.68200  0.03370  Biso   1.000  O
  N14      1.0000 0.09960  0.53460  0.08580  Biso   1.000  N
  C178     1.0000 0.03800  0.80720  0.74680  Biso   1.000  C
  O28      1.0000 0.84100  0.74830  0.03470  Biso   1.000  O
  C179     1.0000 0.85550  0.76320  0.74340  Biso   1.000  C
  C180     1.0000 0.05240  0.79980  0.79530  Biso   1.000  C
  C181     1.0000 0.86990  0.74800  0.79830  Biso   1.000  C
  C182     1.0000 0.96080  0.78250  0.81690  Biso   1.000  C
  C183     1.0000 0.94560  0.76930  0.86810  Biso   1.000  C
  C184     1.0000 0.03490  0.72850  0.89520  Biso   1.000  C
  C185     1.0000 0.84910  0.79520  0.89420  Biso   1.000  C
  C186     1.0000 0.03770  0.71940  0.94350  Biso   1.000  C
  C187     1.0000 0.83460  0.78650  0.94030  Biso   1.000  C
  C188     1.0000 0.93210  0.72790  0.01360  Biso   1.000  C
  C189     1.0000 0.92430  0.74600  0.96390  Biso   1.000  C
  C190     1.0000 0.72510  0.88520  0.58470  Biso   1.000  C
  Zn8      1.0000 0.97460  0.86710  0.59150  Biso   1.000  Zn
  C191     1.0000 0.81840  0.02670  0.57820  Biso   1.000  C
  C192     1.0000 0.60710  0.01870  0.56820  Biso   1.000  C
  C193     1.0000 0.62680  0.92700  0.57750  Biso   1.000  C
  C194     1.0000 0.70180  0.05860  0.57100  Biso   1.000  C
  C195     1.0000 0.24920  0.07770  0.57870  Biso   1.000  C
  C196     1.0000 0.32510  0.11920  0.57700  Biso   1.000  C
  C197     1.0000 0.41980  0.09580  0.58080  Biso   1.000  C
  C198     1.0000 0.49380  0.06660  0.55720  Biso   1.000  C
  C199     1.0000 0.22980  0.03780  0.53680  Biso   1.000  C
  C200     1.0000 0.13180  0.98090  0.54310  Biso   1.000  C
  C201     1.0000 0.13660  0.99030  0.62720  Biso   1.000  C
  C202     1.0000 0.22350  0.05940  0.62220  Biso   1.000  C
  O29      1.0000 0.02030  0.67270  0.15250  Biso   1.000  O
  C203     1.0000 0.93980  0.70000  0.16980  Biso   1.000  C
  N15      1.0000 0.82650  0.93180  0.58490  Biso   1.000  N
  O30      1.0000 0.84840  0.72740  0.15240  Biso   1.000  O
  C204     1.0000 0.95330  0.71160  0.22260  Biso   1.000  C
  O31      1.0000 0.00680  0.81800  0.53370  Biso   1.000  O
  N16      1.0000 0.09960  0.96540  0.58580  Biso   1.000  N
  C205     1.0000 0.03800  0.69280  0.24680  Biso   1.000  C
  O32      1.0000 0.84100  0.75170  0.53470  Biso   1.000  O
  C206     1.0000 0.85550  0.73680  0.24340  Biso   1.000  C
  C207     1.0000 0.05240  0.70020  0.29530  Biso   1.000  C
  C208     1.0000 0.86990  0.75200  0.29830  Biso   1.000  C
  C209     1.0000 0.96080  0.71750  0.31690  Biso   1.000  C
  C210     1.0000 0.94560  0.73070  0.36810  Biso   1.000  C
  C211     1.0000 0.03490  0.77150  0.39520  Biso   1.000  C
  C212     1.0000 0.84910  0.70480  0.39420  Biso   1.000  C
  C213     1.0000 0.03770  0.78060  0.44350  Biso   1.000  C
  C214     1.0000 0.83460  0.71350  0.44030  Biso   1.000  C
  C215     1.0000 0.93210  0.77210  0.51360  Biso   1.000  C
  C216     1.0000 0.92430  0.75400  0.46390  Biso   1.000  C
