data_image0
_cell_length_a       18.257
_cell_length_b       8.475
_cell_length_c       28.615
_cell_angle_alpha    90
_cell_angle_beta     129.59
_cell_angle_gamma    90

_symmetry_space_group_name_H-M    "P 1"
_symmetry_int_tables_number       1

loop_
  _symmetry_equiv_pos_as_xyz
  'x, y, z'

loop_
  _atom_site_label
  _atom_site_occupancy
  _atom_site_fract_x
  _atom_site_fract_y
  _atom_site_fract_z
  _atom_site_thermal_displace_type
  _atom_site_B_iso_or_equiv
  _atom_site_type_symbol
  O1       1.0000 0.98270  0.22260  0.57730  Biso   1.000  O
  O2       1.0000 0.13230  0.29920  0.62870  Biso   1.000  O
  C1       1.0000 0.01920  0.63570  0.71640  Biso   1.000  C
  C2       1.0000 0.05400  0.30510  0.61820  Biso   1.000  C
  O3       1.0000 0.66100  0.28010  0.60330  Biso   1.000  O
  C3       1.0000 0.10280  0.63270  0.72450  Biso   1.000  C
  H1       1.0000 0.15110  0.70440  0.75060  Biso   1.000  H
  C4       1.0000 0.95010  0.52400  0.67900  Biso   1.000  C
  H2       1.0000 0.89500  0.52200  0.67440  Biso   1.000  H
  O4       1.0000 0.68400  0.23370  0.53720  Biso   1.000  O
  C5       1.0000 0.91630  0.86150  0.70570  Biso   1.000  C
  C6       1.0000 0.96210  0.41430  0.64790  Biso   1.000  C
  H3       1.0000 0.91500  0.33990  0.62280  Biso   1.000  H
  C7       1.0000 0.04460  0.41620  0.65470  Biso   1.000  C
  C8       1.0000 0.77780  0.09400  0.62910  Biso   1.000  C
  C9       1.0000 0.87150  0.86830  0.64450  Biso   1.000  C
  H4       1.0000 0.88620  0.79350  0.62790  Biso   1.000  H
  C10      1.0000 0.88990  0.97320  0.72810  Biso   1.000  C
  H5       1.0000 0.91830  0.97100  0.76900  Biso   1.000  H
  C11      1.0000 0.82260  0.08740  0.69120  Biso   1.000  C
  H6       1.0000 0.80680  0.16080  0.70770  Biso   1.000  H
  C12      1.0000 0.80500  0.98420  0.60750  Biso   1.000  C
  H7       1.0000 0.77820  0.98770  0.56690  Biso   1.000  H
  C13      1.0000 0.70270  0.21000  0.58710  Biso   1.000  C
  C14      1.0000 0.11390  0.52280  0.69370  Biso   1.000  C
  H8       1.0000 0.17040  0.52160  0.69970  Biso   1.000  H
  O5       1.0000 0.01730  0.22260  0.92270  Biso   1.000  O
  O6       1.0000 0.86770  0.29920  0.87130  Biso   1.000  O
  C15      1.0000 0.98080  0.63570  0.78360  Biso   1.000  C
  C16      1.0000 0.94600  0.30510  0.88180  Biso   1.000  C
  O7       1.0000 0.33900  0.28010  0.89670  Biso   1.000  O
  C17      1.0000 0.89720  0.63270  0.77550  Biso   1.000  C
  H9       1.0000 0.84890  0.70440  0.74940  Biso   1.000  H
  C18      1.0000 0.04990  0.52400  0.82100  Biso   1.000  C
  H10      1.0000 0.10500  0.52200  0.82560  Biso   1.000  H
  O8       1.0000 0.31600  0.23370  0.96280  Biso   1.000  O
  C19      1.0000 0.08370  0.86150  0.79430  Biso   1.000  C
  C20      1.0000 0.03790  0.41430  0.85210  Biso   1.000  C
  H11      1.0000 0.08500  0.33990  0.87720  Biso   1.000  H
  C21      1.0000 0.95540  0.41620  0.84530  Biso   1.000  C
  C22      1.0000 0.22220  0.09400  0.87090  Biso   1.000  C
  C23      1.0000 0.12850  0.86830  0.85550  Biso   1.000  C
  H12      1.0000 0.11380  0.79350  0.87210  Biso   1.000  H
  C24      1.0000 0.11010  0.97320  0.77190  Biso   1.000  C
  H13      1.0000 0.08170  0.97100  0.73100  Biso   1.000  H
  C25      1.0000 0.17740  0.08740  0.80880  Biso   1.000  C
  H14      1.0000 0.19320  0.16080  0.79230  Biso   1.000  H
  C26      1.0000 0.19500  0.98420  0.89250  Biso   1.000  C
  H15      1.0000 0.22180  0.98770  0.93310  Biso   1.000  H
  C27      1.0000 0.29730  0.21000  0.91290  Biso   1.000  C
  C28      1.0000 0.88610  0.52280  0.80630  Biso   1.000  C
  H16      1.0000 0.82960  0.52160  0.80030  Biso   1.000  H
  C29      1.0000 0.00000  0.74840  0.75000  Biso   1.000  C
  O9       1.0000 0.01730  0.77740  0.42270  Biso   1.000  O
  O10      1.0000 0.86770  0.70080  0.37130  Biso   1.000  O
  C30      1.0000 0.98080  0.36430  0.28360  Biso   1.000  C
  C31      1.0000 0.94600  0.69490  0.38180  Biso   1.000  C
  O11      1.0000 0.33900  0.71990  0.39670  Biso   1.000  O
  C32      1.0000 0.89720  0.36730  0.27550  Biso   1.000  C
  H17      1.0000 0.84890  0.29560  0.24940  Biso   1.000  H
  C33      1.0000 0.04990  0.47600  0.32100  Biso   1.000  C
  H18      1.0000 0.10500  0.47800  0.32560  Biso   1.000  H
  O12      1.0000 0.31600  0.76630  0.46280  Biso   1.000  O
  C34      1.0000 0.08370  0.13850  0.29430  Biso   1.000  C
  C35      1.0000 0.03790  0.58570  0.35210  Biso   1.000  C
  H19      1.0000 0.08500  0.66010  0.37720  Biso   1.000  H
  C36      1.0000 0.95540  0.58380  0.34530  Biso   1.000  C
  C37      1.0000 0.22220  0.90600  0.37090  Biso   1.000  C
  C38      1.0000 0.12850  0.13170  0.35550  Biso   1.000  C
  H20      1.0000 0.11380  0.20650  0.37210  Biso   1.000  H
  C39      1.0000 0.11010  0.02680  0.27190  Biso   1.000  C
  H21      1.0000 0.08170  0.02900  0.23100  Biso   1.000  H
  C40      1.0000 0.17740  0.91260  0.30880  Biso   1.000  C
  H22      1.0000 0.19320  0.83920  0.29230  Biso   1.000  H
  C41      1.0000 0.19500  0.01580  0.39250  Biso   1.000  C
  H23      1.0000 0.22180  0.01230  0.43310  Biso   1.000  H
  C42      1.0000 0.29730  0.79000  0.41290  Biso   1.000  C
  C43      1.0000 0.88610  0.47720  0.30630  Biso   1.000  C
  H24      1.0000 0.82960  0.47840  0.30030  Biso   1.000  H
  O13      1.0000 0.98270  0.77740  0.07730  Biso   1.000  O
  O14      1.0000 0.13230  0.70080  0.12870  Biso   1.000  O
  C44      1.0000 0.01920  0.36430  0.21640  Biso   1.000  C
  C45      1.0000 0.05400  0.69490  0.11820  Biso   1.000  C
  O15      1.0000 0.66100  0.71990  0.10330  Biso   1.000  O
  C46      1.0000 0.10280  0.36730  0.22450  Biso   1.000  C
  H25      1.0000 0.15110  0.29560  0.25060  Biso   1.000  H
  C47      1.0000 0.95010  0.47600  0.17900  Biso   1.000  C
  H26      1.0000 0.89500  0.47800  0.17440  Biso   1.000  H
  O16      1.0000 0.68400  0.76630  0.03720  Biso   1.000  O
  C48      1.0000 0.91630  0.13850  0.20570  Biso   1.000  C
  C49      1.0000 0.96210  0.58570  0.14790  Biso   1.000  C
  H27      1.0000 0.91500  0.66010  0.12280  Biso   1.000  H
  C50      1.0000 0.04460  0.58380  0.15470  Biso   1.000  C
  C51      1.0000 0.77780  0.90600  0.12910  Biso   1.000  C
  C52      1.0000 0.87150  0.13170  0.14450  Biso   1.000  C
  H28      1.0000 0.88620  0.20650  0.12790  Biso   1.000  H
  C53      1.0000 0.88990  0.02680  0.22810  Biso   1.000  C
  H29      1.0000 0.91830  0.02900  0.26900  Biso   1.000  H
  C54      1.0000 0.82260  0.91260  0.19120  Biso   1.000  C
  H30      1.0000 0.80680  0.83920  0.20770  Biso   1.000  H
  C55      1.0000 0.80500  0.01580  0.10750  Biso   1.000  C
  H31      1.0000 0.77820  0.01230  0.06690  Biso   1.000  H
  C56      1.0000 0.70270  0.79000  0.08710  Biso   1.000  C
  C57      1.0000 0.11390  0.47720  0.19370  Biso   1.000  C
  H32      1.0000 0.17040  0.47840  0.19970  Biso   1.000  H
  C58      1.0000 0.00000  0.25160  0.25000  Biso   1.000  C
  C59      1.0000 0.65910  0.62720  0.52020  Biso   1.000  C
  H33      1.0000 0.70600  0.54590  0.54540  Biso   1.000  H
  H34      1.0000 0.69180  0.72310  0.52430  Biso   1.000  H
  C60      1.0000 0.56010  0.85970  0.57560  Biso   1.000  C
  H35      1.0000 0.59680  0.95510  0.59560  Biso   1.000  H
  H36      1.0000 0.49610  0.87680  0.56120  Biso   1.000  H
  N1       1.0000 0.46400  0.55710  0.54740  Biso   1.000  N
  H37      1.0000 0.41870  0.64430  0.52560  Biso   1.000  H
  N2       1.0000 0.60020  0.65510  0.53800  Biso   1.000  N
  N3       1.0000 0.60520  0.72310  0.61880  Biso   1.000  N
  C61      1.0000 0.66250  0.65310  0.60560  Biso   1.000  C
  H38      1.0000 0.68020  0.54600  0.62100  Biso   1.000  H
  H39      1.0000 0.71970  0.71430  0.62370  Biso   1.000  H
  C62      1.0000 0.53740  0.61370  0.61090  Biso   1.000  C
  H40      1.0000 0.50560  0.66440  0.62400  Biso   1.000  H
  H41      1.0000 0.57150  0.52320  0.63690  Biso   1.000  H
  C63      1.0000 0.40920  0.42520  0.54550  Biso   1.000  C
  H42      1.0000 0.37460  0.45980  0.55890  Biso   1.000  H
  H43      1.0000 0.45110  0.33940  0.57130  Biso   1.000  H
  C64      1.0000 0.55800  0.81810  0.52310  Biso   1.000  C
  H44      1.0000 0.49340  0.81830  0.48500  Biso   1.000  H
  H45      1.0000 0.59560  0.89220  0.52040  Biso   1.000  H
  C65      1.0000 0.34090  0.37280  0.47980  Biso   1.000  C
  H46      1.0000 0.29400  0.45410  0.45460  Biso   1.000  H
  H47      1.0000 0.30820  0.27690  0.47570  Biso   1.000  H
  C66      1.0000 0.43990  0.14030  0.42440  Biso   1.000  C
  H48      1.0000 0.40320  0.04490  0.40440  Biso   1.000  H
  H49      1.0000 0.50390  0.12320  0.43880  Biso   1.000  H
  N4       1.0000 0.53600  0.44290  0.45260  Biso   1.000  N
  H50      1.0000 0.58130  0.35570  0.47440  Biso   1.000  H
  N5       1.0000 0.39980  0.34490  0.46200  Biso   1.000  N
  N6       1.0000 0.39480  0.27690  0.38120  Biso   1.000  N
  C67      1.0000 0.33750  0.34690  0.39440  Biso   1.000  C
  H51      1.0000 0.31980  0.45400  0.37900  Biso   1.000  H
  H52      1.0000 0.28030  0.28570  0.37630  Biso   1.000  H
  C68      1.0000 0.46260  0.38630  0.38910  Biso   1.000  C
  H53      1.0000 0.49440  0.33560  0.37600  Biso   1.000  H
  H54      1.0000 0.42850  0.47680  0.36310  Biso   1.000  H
  C69      1.0000 0.59080  0.57480  0.45450  Biso   1.000  C
  H55      1.0000 0.62540  0.54020  0.44110  Biso   1.000  H
  H56      1.0000 0.54890  0.66060  0.42870  Biso   1.000  H
  C70      1.0000 0.44200  0.18190  0.47690  Biso   1.000  C
  H57      1.0000 0.50660  0.18170  0.51500  Biso   1.000  H
  H58      1.0000 0.40440  0.10780  0.47960  Biso   1.000  H
  Ni1      1.0000 0.50000  0.50000  0.50000  Biso   1.000  Ni
  C71      1.0000 0.98240  0.31560  0.46400  Biso   1.000  C
  H59      1.0000 0.97680  0.31610  0.49550  Biso   1.000  H
  H60      1.0000 0.93540  0.38710  0.43190  Biso   1.000  H
  N7       1.0000 0.96880  0.15200  0.43950  Biso   1.000  N
  N8       1.0000 0.86860  0.93320  0.44430  Biso   1.000  N
  H61      1.0000 0.86710  0.84510  0.42160  Biso   1.000  H
  N9       1.0000 0.12200  0.22770  0.48060  Biso   1.000  N
  C72      1.0000 0.04020  0.15000  0.42900  Biso   1.000  C
  H62      1.0000 0.05520  0.04250  0.42610  Biso   1.000  H
  H63      1.0000 0.01570  0.20580  0.39200  Biso   1.000  H
  C73      1.0000 0.08350  0.36500  0.49000  Biso   1.000  C
  H64      1.0000 0.08120  0.45650  0.46870  Biso   1.000  H
  H65      1.0000 0.12220  0.38990  0.53280  Biso   1.000  H
  C74      1.0000 0.87000  0.11800  0.38190  Biso   1.000  C
  H66      1.0000 0.87200  0.03910  0.35820  Biso   1.000  H
  H67      1.0000 0.84140  0.21320  0.35780  Biso   1.000  H
  C75      1.0000 0.81290  0.05800  0.39980  Biso   1.000  C
  H68      1.0000 0.80130  0.14270  0.41720  Biso   1.000  H
  H69      1.0000 0.75210  0.01710  0.36460  Biso   1.000  H
  C76      1.0000 0.18080  0.12600  0.53310  Biso   1.000  C
  H70      1.0000 0.23720  0.18370  0.56540  Biso   1.000  H
  H71      1.0000 0.20110  0.03660  0.52270  Biso   1.000  H
  C77      1.0000 0.01760  0.68440  0.53600  Biso   1.000  C
  H72      1.0000 0.02320  0.68390  0.50450  Biso   1.000  H
  H73      1.0000 0.06460  0.61290  0.56810  Biso   1.000  H
  N10      1.0000 0.03120  0.84800  0.56050  Biso   1.000  N
  N11      1.0000 0.13140  0.06680  0.55570  Biso   1.000  N
  H74      1.0000 0.13290  0.15490  0.57840  Biso   1.000  H
  N12      1.0000 0.87800  0.77230  0.51940  Biso   1.000  N
  C78      1.0000 0.95980  0.85000  0.57100  Biso   1.000  C
  H75      1.0000 0.94480  0.95750  0.57390  Biso   1.000  H
  H76      1.0000 0.98430  0.79420  0.60800  Biso   1.000  H
  C79      1.0000 0.91650  0.63500  0.51000  Biso   1.000  C
  H77      1.0000 0.91880  0.54350  0.53130  Biso   1.000  H
  H78      1.0000 0.87780  0.61010  0.46720  Biso   1.000  H
  C80      1.0000 0.13000  0.88200  0.61810  Biso   1.000  C
  H79      1.0000 0.12800  0.96090  0.64180  Biso   1.000  H
  H80      1.0000 0.15860  0.78680  0.64220  Biso   1.000  H
  C81      1.0000 0.18710  0.94200  0.60020  Biso   1.000  C
  H81      1.0000 0.19870  0.85730  0.58280  Biso   1.000  H
  H82      1.0000 0.24790  0.98290  0.63540  Biso   1.000  H
  C82      1.0000 0.81920  0.87400  0.46690  Biso   1.000  C
  H83      1.0000 0.76280  0.81630  0.43460  Biso   1.000  H
  H84      1.0000 0.79890  0.96340  0.47730  Biso   1.000  H
  Ni2      1.0000 0.00000  0.00000  0.50000  Biso   1.000  Ni
  C83      1.0000 0.34090  0.62720  0.97980  Biso   1.000  C
  H85      1.0000 0.29400  0.54590  0.95460  Biso   1.000  H
  H86      1.0000 0.30820  0.72310  0.97570  Biso   1.000  H
  C84      1.0000 0.43990  0.85970  0.92440  Biso   1.000  C
  H87      1.0000 0.40320  0.95510  0.90440  Biso   1.000  H
  H88      1.0000 0.50390  0.87680  0.93880  Biso   1.000  H
  N13      1.0000 0.53600  0.55710  0.95260  Biso   1.000  N
  H89      1.0000 0.58130  0.64430  0.97440  Biso   1.000  H
  N14      1.0000 0.39980  0.65510  0.96200  Biso   1.000  N
  N15      1.0000 0.39480  0.72310  0.88120  Biso   1.000  N
  C85      1.0000 0.33750  0.65310  0.89440  Biso   1.000  C
  H90      1.0000 0.31980  0.54600  0.87900  Biso   1.000  H
  H91      1.0000 0.28030  0.71430  0.87630  Biso   1.000  H
  C86      1.0000 0.46260  0.61370  0.88910  Biso   1.000  C
  H92      1.0000 0.49440  0.66440  0.87600  Biso   1.000  H
  H93      1.0000 0.42850  0.52320  0.86310  Biso   1.000  H
  C87      1.0000 0.59080  0.42520  0.95450  Biso   1.000  C
  H94      1.0000 0.62540  0.45980  0.94110  Biso   1.000  H
  H95      1.0000 0.54890  0.33940  0.92870  Biso   1.000  H
  C88      1.0000 0.44200  0.81810  0.97690  Biso   1.000  C
  H96      1.0000 0.50660  0.81830  0.01500  Biso   1.000  H
  H97      1.0000 0.40440  0.89220  0.97960  Biso   1.000  H
  C89      1.0000 0.65910  0.37280  0.02020  Biso   1.000  C
  H98      1.0000 0.70600  0.45410  0.04540  Biso   1.000  H
  H99      1.0000 0.69180  0.27690  0.02430  Biso   1.000  H
  C90      1.0000 0.56010  0.14030  0.07560  Biso   1.000  C
  H100     1.0000 0.59680  0.04490  0.09560  Biso   1.000  H
  H101     1.0000 0.49610  0.12320  0.06120  Biso   1.000  H
  N16      1.0000 0.46400  0.44290  0.04740  Biso   1.000  N
  H102     1.0000 0.41870  0.35570  0.02560  Biso   1.000  H
  N17      1.0000 0.60020  0.34490  0.03800  Biso   1.000  N
  N18      1.0000 0.60520  0.27690  0.11880  Biso   1.000  N
  C91      1.0000 0.66250  0.34690  0.10560  Biso   1.000  C
  H103     1.0000 0.68020  0.45400  0.12100  Biso   1.000  H
  H104     1.0000 0.71970  0.28570  0.12370  Biso   1.000  H
  C92      1.0000 0.53740  0.38630  0.11090  Biso   1.000  C
  H105     1.0000 0.50560  0.33560  0.12400  Biso   1.000  H
  H106     1.0000 0.57150  0.47680  0.13690  Biso   1.000  H
  C93      1.0000 0.40920  0.57480  0.04550  Biso   1.000  C
  H107     1.0000 0.37460  0.54020  0.05890  Biso   1.000  H
  H108     1.0000 0.45110  0.66060  0.07130  Biso   1.000  H
  C94      1.0000 0.55800  0.18190  0.02310  Biso   1.000  C
  H109     1.0000 0.49340  0.18170  0.98500  Biso   1.000  H
  H110     1.0000 0.59560  0.10780  0.02040  Biso   1.000  H
  Ni3      1.0000 0.50000  0.50000  0.00000  Biso   1.000  Ni
  C95      1.0000 0.01760  0.31560  0.03600  Biso   1.000  C
  H111     1.0000 0.02320  0.31610  0.00450  Biso   1.000  H
  H112     1.0000 0.06460  0.38710  0.06810  Biso   1.000  H
  N19      1.0000 0.03120  0.15200  0.06050  Biso   1.000  N
  N20      1.0000 0.13140  0.93320  0.05570  Biso   1.000  N
  H113     1.0000 0.13290  0.84510  0.07840  Biso   1.000  H
  N21      1.0000 0.87800  0.22770  0.01940  Biso   1.000  N
  C96      1.0000 0.95980  0.15000  0.07100  Biso   1.000  C
  H114     1.0000 0.94480  0.04250  0.07390  Biso   1.000  H
  H115     1.0000 0.98430  0.20580  0.10800  Biso   1.000  H
  C97      1.0000 0.91650  0.36500  0.01000  Biso   1.000  C
  H116     1.0000 0.91880  0.45650  0.03130  Biso   1.000  H
  H117     1.0000 0.87780  0.38990  0.96720  Biso   1.000  H
  C98      1.0000 0.13000  0.11800  0.11810  Biso   1.000  C
  H118     1.0000 0.12800  0.03910  0.14180  Biso   1.000  H
  H119     1.0000 0.15860  0.21320  0.14220  Biso   1.000  H
  C99      1.0000 0.18710  0.05800  0.10020  Biso   1.000  C
  H120     1.0000 0.19870  0.14270  0.08280  Biso   1.000  H
  H121     1.0000 0.24790  0.01710  0.13540  Biso   1.000  H
  C100     1.0000 0.81920  0.12600  0.96690  Biso   1.000  C
  H122     1.0000 0.76280  0.18370  0.93460  Biso   1.000  H
  H123     1.0000 0.79890  0.03660  0.97730  Biso   1.000  H
  C101     1.0000 0.98240  0.68440  0.96400  Biso   1.000  C
  H124     1.0000 0.97680  0.68390  0.99550  Biso   1.000  H
  H125     1.0000 0.93540  0.61290  0.93190  Biso   1.000  H
  N22      1.0000 0.96880  0.84800  0.93950  Biso   1.000  N
  N23      1.0000 0.86860  0.06680  0.94430  Biso   1.000  N
  H126     1.0000 0.86710  0.15490  0.92160  Biso   1.000  H
  N24      1.0000 0.12200  0.77230  0.98060  Biso   1.000  N
  C102     1.0000 0.04020  0.85000  0.92900  Biso   1.000  C
  H127     1.0000 0.05520  0.95750  0.92610  Biso   1.000  H
  H128     1.0000 0.01570  0.79420  0.89200  Biso   1.000  H
  C103     1.0000 0.08350  0.63500  0.99000  Biso   1.000  C
  H129     1.0000 0.08120  0.54350  0.96870  Biso   1.000  H
  H130     1.0000 0.12220  0.61010  0.03280  Biso   1.000  H
  C104     1.0000 0.87000  0.88200  0.88190  Biso   1.000  C
  H131     1.0000 0.87200  0.96090  0.85820  Biso   1.000  H
  H132     1.0000 0.84140  0.78680  0.85780  Biso   1.000  H
  C105     1.0000 0.81290  0.94200  0.89980  Biso   1.000  C
  H133     1.0000 0.80130  0.85730  0.91720  Biso   1.000  H
  H134     1.0000 0.75210  0.98290  0.86460  Biso   1.000  H
  C106     1.0000 0.18080  0.87400  0.03310  Biso   1.000  C
  H135     1.0000 0.23720  0.81630  0.06540  Biso   1.000  H
  H136     1.0000 0.20110  0.96340  0.02270  Biso   1.000  H
  Ni4      1.0000 0.00000  0.00000  0.00000  Biso   1.000  Ni
