data_image0
_cell_length_a       13.99
_cell_length_b       15.425
_cell_length_c       23.9686
_cell_angle_alpha    104.571
_cell_angle_beta     106.453
_cell_angle_gamma    93.491

_symmetry_space_group_name_H-M    "P 1"
_symmetry_int_tables_number       1

loop_
  _symmetry_equiv_pos_as_xyz
  'x, y, z'

loop_
  _atom_site_label
  _atom_site_occupancy
  _atom_site_fract_x
  _atom_site_fract_y
  _atom_site_fract_z
  _atom_site_thermal_displace_type
  _atom_site_B_iso_or_equiv
  _atom_site_type_symbol
  Ir1      1.0000 0.18189  0.27945  0.11961  Biso   1.000  Ir
  N1       1.0000 0.15640  0.15770  0.13550  Biso   1.000  N
  C1       1.0000 0.07080  0.09910  0.10770  Biso   1.000  C
  H1       1.0000 0.02150  0.11070  0.07490  Biso   1.000  H
  C2       1.0000 0.05230  0.02230  0.12530  Biso   1.000  C
  H2       1.0000 0.99140  0.98170  0.10500  Biso   1.000  H
  C3       1.0000 0.12390  0.00640  0.17270  Biso   1.000  C
  H3       1.0000 0.11240  0.95490  0.18620  Biso   1.000  H
  C4       1.0000 0.21190  0.06490  0.20050  Biso   1.000  C
  H4       1.0000 0.26250  0.05290  0.23250  Biso   1.000  H
  C5       1.0000 0.22790  0.14150  0.18230  Biso   1.000  C
  C6       1.0000 0.31730  0.21050  0.20790  Biso   1.000  C
  C7       1.0000 0.40360  0.20360  0.25240  Biso   1.000  C
  H5       1.0000 0.40640  0.15180  0.26710  Biso   1.000  H
  C8       1.0000 0.48350  0.27040  0.27490  Biso   1.000  C
  H6       1.0000 0.54150  0.26670  0.30610  Biso   1.000  H
  C9       1.0000 0.47890  0.34420  0.25140  Biso   1.000  C
  H7       1.0000 0.53550  0.39030  0.26630  Biso   1.000  H
  C10      1.0000 0.39550  0.35290  0.20750  Biso   1.000  C
  H8       1.0000 0.39500  0.40440  0.19250  Biso   1.000  H
  C11      1.0000 0.31000  0.28490  0.18450  Biso   1.000  C
  N2       1.0000 0.21440  0.40940  0.11811  Biso   1.000  N
  C12      1.0000 0.25670  0.43340  0.07880  Biso   1.000  C
  H9       1.0000 0.26890  0.38700  0.04820  Biso   1.000  H
  C13      1.0000 0.28270  0.52230  0.08140  Biso   1.000  C
  H10      1.0000 0.31340  0.53670  0.05360  Biso   1.000  H
  C14      1.0000 0.26350  0.58920  0.12460  Biso   1.000  C
  H11      1.0000 0.28160  0.65110  0.12790  Biso   1.000  H
  C15      1.0000 0.21720  0.56510  0.16360  Biso   1.000  C
  H12      1.0000 0.20150  0.61130  0.19280  Biso   1.000  H
  C16      1.0000 0.19290  0.47420  0.16090  Biso   1.000  C
  C17      1.0000 0.14680  0.43980  0.19950  Biso   1.000  C
  C18      1.0000 0.12220  0.49540  0.24800  Biso   1.000  C
  H13      1.0000 0.13390  0.55940  0.25640  Biso   1.000  H
  C19      1.0000 0.08100  0.45730  0.28350  Biso   1.000  C
  H14      1.0000 0.06510  0.49500  0.31660  Biso   1.000  H
  C20      1.0000 0.06270  0.36400  0.27100  Biso   1.000  C
  H15      1.0000 0.03350  0.33730  0.29510  Biso   1.000  H
  C21      1.0000 0.08780  0.30960  0.22250  Biso   1.000  C
  H16      1.0000 0.07400  0.24570  0.21370  Biso   1.000  H
  C22      1.0000 0.13170  0.34530  0.18700  Biso   1.000  C
  C23      1.0000 0.60450  0.34130  0.00150  Biso   1.000  C
  C24      1.0000 0.58730  0.39230  0.05320  Biso   1.000  C
  H17      1.0000 0.64040  0.41240  0.09050  Biso   1.000  H
  C25      1.0000 0.49130  0.41360  0.04980  Biso   1.000  C
  H18      1.0000 0.48110  0.44940  0.08560  Biso   1.000  H
  N3       1.0000 0.41380  0.38740  0.00040  Biso   1.000  N
  C26      1.0000 0.43110  0.34020  0.95050  Biso   1.000  C
  H19      1.0000 0.37670  0.32170  0.91380  Biso   1.000  H
  C27      1.0000 0.52450  0.31670  0.94960  Biso   1.000  C
  H20      1.0000 0.53310  0.28320  0.91270  Biso   1.000  H
  C28      1.0000 0.70280  0.31600  0.00190  Biso   1.000  C
  C29      1.0000 0.78180  0.29610  0.00090  Biso   1.000  C
  C30      1.0000 0.87700  0.27220  0.99590  Biso   1.000  C
  C31      1.0000 0.96000  0.28290  0.04670  Biso   1.000  C
  H21      1.0000 0.95250  0.30720  0.08550  Biso   1.000  H
  N4       1.0000 0.04950  0.26080  0.04384  Biso   1.000  N
  C32      1.0000 0.06150  0.22610  0.98890  Biso   1.000  C
  C33      1.0000 0.98260  0.21410  0.93550  Biso   1.000  C
  H22      1.0000 0.99270  0.19120  0.89730  Biso   1.000  H
  C34      1.0000 0.88950  0.23570  0.93880  Biso   1.000  C
  H23      1.0000 0.83450  0.22600  0.90290  Biso   1.000  H
  C35      1.0000 0.16160  0.20180  0.98898  Biso   1.000  C
  N5       1.0000 0.22970  0.21660  0.04419  Biso   1.000  N
  C36      1.0000 0.32260  0.19330  0.04810  Biso   1.000  C
  H24      1.0000 0.37010  0.20340  0.08710  Biso   1.000  H
  C37      1.0000 0.35100  0.15520  0.99760  Biso   1.000  C
  C38      1.0000 0.28020  0.14110  0.94100  Biso   1.000  C
  H25      1.0000 0.29700  0.11500  0.90530  Biso   1.000  H
  C39      1.0000 0.18570  0.16490  0.93660  Biso   1.000  C
  H26      1.0000 0.13740  0.15600  0.89800  Biso   1.000  H
  C40      1.0000 0.45010  0.13180  0.00340  Biso   1.000  C
  C41      1.0000 0.53220  0.11390  0.00610  Biso   1.000  C
  C42      1.0000 0.63310  0.09330  0.01110  Biso   1.000  C
  C43      1.0000 0.70500  0.10830  0.06690  Biso   1.000  C
  H27      1.0000 0.68910  0.13150  0.10330  Biso   1.000  H
  C44      1.0000 0.79970  0.08870  0.06830  Biso   1.000  C
  H28      1.0000 0.84880  0.10080  0.10700  Biso   1.000  H
  N6       1.0000 0.82860  0.05430  0.02000  Biso   1.000  N
  C45      1.0000 0.75870  0.04130  0.96740  Biso   1.000  C
  H29      1.0000 0.77720  0.01820  0.93190  Biso   1.000  H
  C46      1.0000 0.66080  0.05840  0.95980  Biso   1.000  C
  H30      1.0000 0.61380  0.04660  0.92050  Biso   1.000  H
  Ir2      1.0000 0.25885  0.70135  0.48382  Biso   1.000  Ir
  N7       1.0000 0.24320  0.75510  0.41264  Biso   1.000  N
  C47      1.0000 0.31760  0.80330  0.40360  Biso   1.000  C
  H31      1.0000 0.38230  0.81580  0.43300  Biso   1.000  H
  C48      1.0000 0.30500  0.83490  0.35470  Biso   1.000  C
  H32      1.0000 0.35980  0.86760  0.34920  Biso   1.000  H
  C49      1.0000 0.20950  0.81810  0.31240  Biso   1.000  C
  H33      1.0000 0.19780  0.84070  0.27800  Biso   1.000  H
  C50      1.0000 0.13240  0.76900  0.32070  Biso   1.000  C
  H34      1.0000 0.06690  0.75810  0.29230  Biso   1.000  H
  C51      1.0000 0.14950  0.73500  0.37080  Biso   1.000  C
  C52      1.0000 0.07720  0.67600  0.38290  Biso   1.000  C
  C53      1.0000 0.97600  0.65360  0.34980  Biso   1.000  C
  H35      1.0000 0.94900  0.67810  0.31700  Biso   1.000  H
  C54      1.0000 0.91530  0.59650  0.36430  Biso   1.000  C
  H36      1.0000 0.84570  0.58170  0.34200  Biso   1.000  H
  C55      1.0000 0.95500  0.55980  0.41180  Biso   1.000  C
  H37      1.0000 0.91230  0.51940  0.42140  Biso   1.000  H
  C56      1.0000 0.05560  0.58120  0.44510  Biso   1.000  C
  H38      1.0000 0.08160  0.55450  0.47700  Biso   1.000  H
  C57      1.0000 0.11940  0.64120  0.43280  Biso   1.000  C
  N8       1.0000 0.27260  0.63300  0.54828  Biso   1.000  N
  C58      1.0000 0.24750  0.66050  0.59910  Biso   1.000  C
  H39      1.0000 0.21920  0.71510  0.60630  Biso   1.000  H
  C59      1.0000 0.26090  0.61320  0.64090  Biso   1.000  C
  H40      1.0000 0.24030  0.63400  0.67590  Biso   1.000  H
  C60      1.0000 0.30350  0.53670  0.63250  Biso   1.000  C
  H41      1.0000 0.31510  0.50400  0.66200  Biso   1.000  H
  C61      1.0000 0.32980  0.50700  0.58040  Biso   1.000  C
  H42      1.0000 0.35910  0.45280  0.57360  Biso   1.000  H
  C62      1.0000 0.31410  0.55550  0.53760  Biso   1.000  C
  C63      1.0000 0.33780  0.53110  0.48110  Biso   1.000  C
  C64      1.0000 0.37610  0.45230  0.46040  Biso   1.000  C
  H43      1.0000 0.39050  0.41160  0.48460  Biso   1.000  H
  C65      1.0000 0.39290  0.43350  0.40660  Biso   1.000  C
  H44      1.0000 0.41800  0.37900  0.39260  Biso   1.000  H
  C66      1.0000 0.37400  0.49290  0.37080  Biso   1.000  C
  H45      1.0000 0.38660  0.47890  0.33280  Biso   1.000  H
  C67      1.0000 0.33680  0.57250  0.39040  Biso   1.000  C
  H46      1.0000 0.32460  0.61310  0.36610  Biso   1.000  H
  C68      1.0000 0.31720  0.59320  0.44630  Biso   1.000  C
  C69      1.0000 0.77450  0.90760  0.49810  Biso   1.000  C
  C70      1.0000 0.73010  0.97400  0.52850  Biso   1.000  C
  H47      1.0000 0.76980  0.02160  0.56240  Biso   1.000  H
  C71      1.0000 0.62650  0.96940  0.50820  Biso   1.000  C
  H48      1.0000 0.59660  0.01530  0.52910  Biso   1.000  H
  N9       1.0000 0.56630  0.90500  0.46160  Biso   1.000  N
  C72      1.0000 0.61120  0.83990  0.43290  Biso   1.000  C
  H49      1.0000 0.56980  0.79250  0.39950  Biso   1.000  H
  C73      1.0000 0.71440  0.83960  0.45020  Biso   1.000  C
  H50      1.0000 0.74290  0.79270  0.42920  Biso   1.000  H
  C74      1.0000 0.88290  0.91000  0.51700  Biso   1.000  C
  C75      1.0000 0.97080  0.91060  0.53220  Biso   1.000  C
  C76      1.0000 0.07720  0.90540  0.54770  Biso   1.000  C
  C77      1.0000 0.10820  0.82990  0.51840  Biso   1.000  C
  H51      1.0000 0.05850  0.78370  0.48860  Biso   1.000  H
  N10      1.0000 0.20490  0.81750  0.52933  Biso   1.000  N
  C78      1.0000 0.27610  0.88410  0.57200  Biso   1.000  C
  C79      1.0000 0.24870  0.96060  0.60420  Biso   1.000  C
  H52      1.0000 0.29890  0.00580  0.63430  Biso   1.000  H
  C80      1.0000 0.14980  0.97150  0.59290  Biso   1.000  C
  H53      1.0000 0.13050  0.02360  0.61550  Biso   1.000  H
  C81      1.0000 0.38180  0.86670  0.57940  Biso   1.000  C
  N11      1.0000 0.39450  0.78820  0.54377  Biso   1.000  N
  C82      1.0000 0.46250  0.92660  0.62120  Biso   1.000  C
  H54      1.0000 0.45220  0.98080  0.64680  Biso   1.000  H
  C83      1.0000 0.55940  0.90640  0.62530  Biso   1.000  C
  H55      1.0000 0.61620  0.94830  0.65220  Biso   1.000  H
  C84      1.0000 0.57240  0.82490  0.59010  Biso   1.000  C
  C85      1.0000 0.48680  0.76760  0.54880  Biso   1.000  C
  H56      1.0000 0.49500  0.71210  0.52360  Biso   1.000  H
  C86      1.0000 0.67160  0.80070  0.59570  Biso   1.000  C
  C87      1.0000 0.75530  0.78560  0.60400  Biso   1.000  C
  C88      1.0000 0.85810  0.77160  0.61390  Biso   1.000  C
  C89      1.0000 0.88480  0.69770  0.57900  Biso   1.000  C
  H57      1.0000 0.83450  0.65320  0.54830  Biso   1.000  H
  C90      1.0000 0.98640  0.68860  0.58920  Biso   1.000  C
  H58      1.0000 0.00360  0.63700  0.56470  Biso   1.000  H
  N12      1.0000 0.06030  0.74830  0.63120  Biso   1.000  N
  C91      1.0000 0.03290  0.81950  0.66550  Biso   1.000  C
  H59      1.0000 0.08450  0.86220  0.69670  Biso   1.000  H
  C92      1.0000 0.93400  0.83420  0.65790  Biso   1.000  C
  H60      1.0000 0.91860  0.88660  0.68270  Biso   1.000  H
  Ir3      1.0000 0.81811  0.72055  0.88039  Biso   1.000  Ir
  N13      1.0000 0.84360  0.84230  0.86450  Biso   1.000  N
  C93      1.0000 0.92920  0.90090  0.89230  Biso   1.000  C
  H61      1.0000 0.97850  0.88930  0.92510  Biso   1.000  H
  C94      1.0000 0.94770  0.97770  0.87470  Biso   1.000  C
  H62      1.0000 0.00860  0.01830  0.89500  Biso   1.000  H
  C95      1.0000 0.87610  0.99360  0.82730  Biso   1.000  C
  H63      1.0000 0.88760  0.04510  0.81380  Biso   1.000  H
  C96      1.0000 0.78810  0.93510  0.79950  Biso   1.000  C
  H64      1.0000 0.73750  0.94710  0.76750  Biso   1.000  H
  C97      1.0000 0.77210  0.85850  0.81770  Biso   1.000  C
  C98      1.0000 0.68270  0.78950  0.79210  Biso   1.000  C
  C99      1.0000 0.59640  0.79640  0.74760  Biso   1.000  C
  H65      1.0000 0.59360  0.84820  0.73290  Biso   1.000  H
  C100     1.0000 0.51650  0.72960  0.72510  Biso   1.000  C
  H66      1.0000 0.45850  0.73330  0.69390  Biso   1.000  H
  C101     1.0000 0.52110  0.65580  0.74860  Biso   1.000  C
  H67      1.0000 0.46450  0.60970  0.73370  Biso   1.000  H
  C102     1.0000 0.60450  0.64710  0.79250  Biso   1.000  C
  H68      1.0000 0.60500  0.59560  0.80750  Biso   1.000  H
  C103     1.0000 0.69000  0.71510  0.81550  Biso   1.000  C
  N14      1.0000 0.78560  0.59060  0.88189  Biso   1.000  N
  C104     1.0000 0.74330  0.56660  0.92120  Biso   1.000  C
  H69      1.0000 0.73110  0.61300  0.95180  Biso   1.000  H
  C105     1.0000 0.71730  0.47770  0.91860  Biso   1.000  C
  H70      1.0000 0.68660  0.46330  0.94640  Biso   1.000  H
  C106     1.0000 0.73650  0.41080  0.87540  Biso   1.000  C
  H71      1.0000 0.71840  0.34890  0.87210  Biso   1.000  H
  C107     1.0000 0.78280  0.43490  0.83640  Biso   1.000  C
  H72      1.0000 0.79850  0.38870  0.80720  Biso   1.000  H
  C108     1.0000 0.80710  0.52580  0.83910  Biso   1.000  C
  C109     1.0000 0.85320  0.56020  0.80050  Biso   1.000  C
  C110     1.0000 0.87780  0.50460  0.75200  Biso   1.000  C
  H73      1.0000 0.86610  0.44060  0.74360  Biso   1.000  H
  C111     1.0000 0.91900  0.54270  0.71650  Biso   1.000  C
  H74      1.0000 0.93490  0.50500  0.68340  Biso   1.000  H
  C112     1.0000 0.93730  0.63600  0.72900  Biso   1.000  C
  H75      1.0000 0.96650  0.66270  0.70490  Biso   1.000  H
  C113     1.0000 0.91220  0.69040  0.77750  Biso   1.000  C
  H76      1.0000 0.92600  0.75430  0.78630  Biso   1.000  H
  C114     1.0000 0.86830  0.65470  0.81300  Biso   1.000  C
  C115     1.0000 0.39550  0.65870  0.99850  Biso   1.000  C
  C116     1.0000 0.41270  0.60770  0.94680  Biso   1.000  C
  H77      1.0000 0.35960  0.58760  0.90950  Biso   1.000  H
  C117     1.0000 0.50870  0.58640  0.95020  Biso   1.000  C
  H78      1.0000 0.51890  0.55060  0.91440  Biso   1.000  H
  N15      1.0000 0.58620  0.61260  0.99960  Biso   1.000  N
  C118     1.0000 0.56890  0.65980  0.04950  Biso   1.000  C
  H79      1.0000 0.62330  0.67830  0.08620  Biso   1.000  H
  C119     1.0000 0.47550  0.68330  0.05040  Biso   1.000  C
  H80      1.0000 0.46690  0.71680  0.08730  Biso   1.000  H
  C120     1.0000 0.29720  0.68400  0.99810  Biso   1.000  C
  C121     1.0000 0.21820  0.70390  0.99910  Biso   1.000  C
  C122     1.0000 0.12300  0.72780  0.00410  Biso   1.000  C
  C123     1.0000 0.04000  0.71710  0.95330  Biso   1.000  C
  H81      1.0000 0.04750  0.69280  0.91450  Biso   1.000  H
  N16      1.0000 0.95050  0.73920  0.95616  Biso   1.000  N
  C124     1.0000 0.93850  0.77390  0.01110  Biso   1.000  C
  C125     1.0000 0.01740  0.78590  0.06450  Biso   1.000  C
  H82      1.0000 0.00730  0.80880  0.10270  Biso   1.000  H
  C126     1.0000 0.11050  0.76430  0.06120  Biso   1.000  C
  H83      1.0000 0.16550  0.77400  0.09710  Biso   1.000  H
  C127     1.0000 0.83840  0.79820  0.01102  Biso   1.000  C
  N17      1.0000 0.77030  0.78340  0.95581  Biso   1.000  N
  C128     1.0000 0.67740  0.80670  0.95190  Biso   1.000  C
  H84      1.0000 0.62990  0.79660  0.91290  Biso   1.000  H
  C129     1.0000 0.64900  0.84480  0.00240  Biso   1.000  C
  C130     1.0000 0.71980  0.85890  0.05900  Biso   1.000  C
  H85      1.0000 0.70300  0.88500  0.09470  Biso   1.000  H
  C131     1.0000 0.81430  0.83510  0.06340  Biso   1.000  C
  H86      1.0000 0.86260  0.84400  0.10200  Biso   1.000  H
  C132     1.0000 0.54990  0.86820  0.99660  Biso   1.000  C
  C133     1.0000 0.46780  0.88610  0.99390  Biso   1.000  C
  C134     1.0000 0.36690  0.90670  0.98890  Biso   1.000  C
  C135     1.0000 0.29500  0.89170  0.93310  Biso   1.000  C
  H87      1.0000 0.31090  0.86850  0.89670  Biso   1.000  H
  C136     1.0000 0.20030  0.91130  0.93170  Biso   1.000  C
  H88      1.0000 0.15120  0.89920  0.89300  Biso   1.000  H
  N18      1.0000 0.17140  0.94570  0.98000  Biso   1.000  N
  C137     1.0000 0.24130  0.95870  0.03260  Biso   1.000  C
  H89      1.0000 0.22280  0.98180  0.06810  Biso   1.000  H
  C138     1.0000 0.33920  0.94160  0.04020  Biso   1.000  C
  H90      1.0000 0.38620  0.95340  0.07950  Biso   1.000  H
  Ir4      1.0000 0.74115  0.29865  0.51618  Biso   1.000  Ir
  N19      1.0000 0.75680  0.24490  0.58736  Biso   1.000  N
  C139     1.0000 0.68240  0.19670  0.59640  Biso   1.000  C
  H91      1.0000 0.61770  0.18420  0.56700  Biso   1.000  H
  C140     1.0000 0.69500  0.16510  0.64530  Biso   1.000  C
  H92      1.0000 0.64020  0.13240  0.65080  Biso   1.000  H
  C141     1.0000 0.79050  0.18190  0.68760  Biso   1.000  C
  H93      1.0000 0.80220  0.15930  0.72200  Biso   1.000  H
  C142     1.0000 0.86760  0.23100  0.67930  Biso   1.000  C
  H94      1.0000 0.93310  0.24190  0.70770  Biso   1.000  H
  C143     1.0000 0.85050  0.26500  0.62920  Biso   1.000  C
  C144     1.0000 0.92280  0.32400  0.61710  Biso   1.000  C
  C145     1.0000 0.02400  0.34640  0.65020  Biso   1.000  C
  H95      1.0000 0.05100  0.32190  0.68300  Biso   1.000  H
  C146     1.0000 0.08470  0.40350  0.63570  Biso   1.000  C
  H96      1.0000 0.15430  0.41830  0.65800  Biso   1.000  H
  C147     1.0000 0.04500  0.44020  0.58820  Biso   1.000  C
  H97      1.0000 0.08770  0.48060  0.57860  Biso   1.000  H
  C148     1.0000 0.94440  0.41880  0.55490  Biso   1.000  C
  H98      1.0000 0.91840  0.44550  0.52300  Biso   1.000  H
  C149     1.0000 0.88060  0.35880  0.56720  Biso   1.000  C
  N20      1.0000 0.72740  0.36700  0.45172  Biso   1.000  N
  C150     1.0000 0.75250  0.33950  0.40090  Biso   1.000  C
  H99      1.0000 0.78080  0.28490  0.39370  Biso   1.000  H
  C151     1.0000 0.73910  0.38680  0.35910  Biso   1.000  C
  H100     1.0000 0.75970  0.36600  0.32410  Biso   1.000  H
  C152     1.0000 0.69650  0.46330  0.36750  Biso   1.000  C
  H101     1.0000 0.68490  0.49600  0.33800  Biso   1.000  H
  C153     1.0000 0.67020  0.49300  0.41960  Biso   1.000  C
  H102     1.0000 0.64090  0.54720  0.42640  Biso   1.000  H
  C154     1.0000 0.68590  0.44450  0.46240  Biso   1.000  C
  C155     1.0000 0.66220  0.46890  0.51890  Biso   1.000  C
  C156     1.0000 0.62390  0.54770  0.53960  Biso   1.000  C
  H103     1.0000 0.60950  0.58840  0.51540  Biso   1.000  H
  C157     1.0000 0.60710  0.56650  0.59340  Biso   1.000  C
  H104     1.0000 0.58200  0.62100  0.60740  Biso   1.000  H
  C158     1.0000 0.62600  0.50710  0.62920  Biso   1.000  C
  H105     1.0000 0.61340  0.52110  0.66720  Biso   1.000  H
  C159     1.0000 0.66320  0.42750  0.60960  Biso   1.000  C
  H106     1.0000 0.67540  0.38690  0.63390  Biso   1.000  H
  C160     1.0000 0.68280  0.40680  0.55370  Biso   1.000  C
  C161     1.0000 0.22550  0.09240  0.50190  Biso   1.000  C
  C162     1.0000 0.26990  0.02600  0.47150  Biso   1.000  C
  H107     1.0000 0.23020  0.97840  0.43760  Biso   1.000  H
  C163     1.0000 0.37350  0.03060  0.49180  Biso   1.000  C
  H108     1.0000 0.40340  0.98470  0.47090  Biso   1.000  H
  N21      1.0000 0.43370  0.09500  0.53840  Biso   1.000  N
  C164     1.0000 0.38880  0.16010  0.56710  Biso   1.000  C
  H109     1.0000 0.43020  0.20750  0.60050  Biso   1.000  H
  C165     1.0000 0.28560  0.16040  0.54980  Biso   1.000  C
  H110     1.0000 0.25710  0.20730  0.57080  Biso   1.000  H
  C166     1.0000 0.11710  0.09000  0.48300  Biso   1.000  C
  C167     1.0000 0.02920  0.08940  0.46780  Biso   1.000  C
  C168     1.0000 0.92280  0.09460  0.45230  Biso   1.000  C
  C169     1.0000 0.89180  0.17010  0.48160  Biso   1.000  C
  H111     1.0000 0.94150  0.21630  0.51140  Biso   1.000  H
  N22      1.0000 0.79510  0.18250  0.47067  Biso   1.000  N
  C170     1.0000 0.72390  0.11590  0.42800  Biso   1.000  C
  C171     1.0000 0.75130  0.03940  0.39580  Biso   1.000  C
  H112     1.0000 0.70110  0.99420  0.36570  Biso   1.000  H
  C172     1.0000 0.85020  0.02850  0.40710  Biso   1.000  C
  H113     1.0000 0.86950  0.97640  0.38450  Biso   1.000  H
  C173     1.0000 0.61820  0.13330  0.42060  Biso   1.000  C
  N23      1.0000 0.60550  0.21180  0.45623  Biso   1.000  N
  C174     1.0000 0.53750  0.07340  0.37880  Biso   1.000  C
  H114     1.0000 0.54780  0.01920  0.35320  Biso   1.000  H
  C175     1.0000 0.44060  0.09360  0.37470  Biso   1.000  C
  H115     1.0000 0.38380  0.05170  0.34780  Biso   1.000  H
  C176     1.0000 0.42760  0.17510  0.40990  Biso   1.000  C
  C177     1.0000 0.51320  0.23240  0.45120  Biso   1.000  C
  H116     1.0000 0.50500  0.28790  0.47640  Biso   1.000  H
  C178     1.0000 0.32840  0.19930  0.40430  Biso   1.000  C
  C179     1.0000 0.24470  0.21440  0.39600  Biso   1.000  C
  C180     1.0000 0.14190  0.22840  0.38610  Biso   1.000  C
  C181     1.0000 0.11520  0.30230  0.42100  Biso   1.000  C
  H117     1.0000 0.16550  0.34680  0.45170  Biso   1.000  H
  C182     1.0000 0.01360  0.31140  0.41080  Biso   1.000  C
  H118     1.0000 0.99640  0.36300  0.43530  Biso   1.000  H
  N24      1.0000 0.93970  0.25170  0.36880  Biso   1.000  N
  C183     1.0000 0.96710  0.18050  0.33450  Biso   1.000  C
  H119     1.0000 0.91550  0.13780  0.30330  Biso   1.000  H
  C184     1.0000 0.06600  0.16580  0.34210  Biso   1.000  C
  H120     1.0000 0.08140  0.11340  0.31730  Biso   1.000  H
