data_image0
_cell_length_a       32.206
_cell_length_b       8.802
_cell_length_c       30.44
_cell_angle_alpha    90
_cell_angle_beta     108.12
_cell_angle_gamma    90

_symmetry_space_group_name_H-M    "P 1"
_symmetry_int_tables_number       1

loop_
  _symmetry_equiv_pos_as_xyz
  'x, y, z'

loop_
  _atom_site_label
  _atom_site_occupancy
  _atom_site_fract_x
  _atom_site_fract_y
  _atom_site_fract_z
  _atom_site_thermal_displace_type
  _atom_site_B_iso_or_equiv
  _atom_site_type_symbol
  Cu1      1.0000 0.62802  0.24769  0.17280  Biso   1.000  Cu
  Cu2      1.0000 0.58337  0.37012  0.22886  Biso   1.000  Cu
  Cu3      1.0000 0.51164  0.07623  0.31415  Biso   1.000  Cu
  I1       1.0000 0.66334  0.43831  0.23391  Biso   1.000  I
  I2       1.0000 0.57158  0.24027  0.30051  Biso   1.000  I
  I3       1.0000 0.45881  0.22322  0.34967  Biso   1.000  I
  C1       1.0000 0.69440  0.51270  0.43690  Biso   1.000  C
  C2       1.0000 0.67650  0.47500  0.38930  Biso   1.000  C
  H1       1.0000 0.66060  0.38810  0.37730  Biso   1.000  H
  C3       1.0000 0.68670  0.58670  0.36490  Biso   1.000  C
  H2       1.0000 0.67850  0.59330  0.33280  Biso   1.000  H
  C4       1.0000 0.71260  0.69490  0.39710  Biso   1.000  C
  C5       1.0000 0.72990  0.82680  0.38520  Biso   1.000  C
  C6       1.0000 0.71930  0.86100  0.33500  Biso   1.000  C
  C7       1.0000 0.73740  0.77330  0.30780  Biso   1.000  C
  H3       1.0000 0.75640  0.69460  0.32130  Biso   1.000  H
  C8       1.0000 0.72780  0.80020  0.26180  Biso   1.000  C
  H4       1.0000 0.74010  0.73900  0.24420  Biso   1.000  H
  C9       1.0000 0.70060  0.91500  0.24110  Biso   1.000  C
  C10      1.0000 0.68060  0.99840  0.26670  Biso   1.000  C
  H5       1.0000 0.66060  0.07360  0.25250  Biso   1.000  H
  C11      1.0000 0.68990  0.97110  0.31400  Biso   1.000  C
  H6       1.0000 0.67610  0.02780  0.33120  Biso   1.000  H
  C12      1.0000 0.72020  0.87760  0.16900  Biso   1.000  C
  H7       1.0000 0.74190  0.80460  0.17950  Biso   1.000  H
  C13      1.0000 0.70680  0.94540  0.12590  Biso   1.000  C
  H8       1.0000 0.71750  0.92900  0.10130  Biso   1.000  H
  C14      1.0000 0.67340  0.04390  0.12780  Biso   1.000  C
  C15      1.0000 0.65110  0.15130  0.09240  Biso   1.000  C
  C16      1.0000 0.65130  0.14510  0.04740  Biso   1.000  C
  H9       1.0000 0.66680  0.06640  0.03940  Biso   1.000  H
  C17      1.0000 0.61270  0.35000  0.02950  Biso   1.000  C
  H10      1.0000 0.59910  0.42440  0.00820  Biso   1.000  H
  C18      1.0000 0.61110  0.36530  0.07350  Biso   1.000  C
  H11      1.0000 0.59680  0.44810  0.08120  Biso   1.000  H
  C19      1.0000 0.75690  0.92300  0.41700  Biso   1.000  C
  C20      1.0000 0.77870  0.05130  0.40460  Biso   1.000  C
  H12      1.0000 0.77740  0.08130  0.37490  Biso   1.000  H
  C21      1.0000 0.80140  0.11930  0.44470  Biso   1.000  C
  H13      1.0000 0.81840  0.20630  0.44770  Biso   1.000  H
  C22      1.0000 0.79440  0.03340  0.48130  Biso   1.000  C
  C23      1.0000 0.68840  0.42900  0.47260  Biso   1.000  C
  C24      1.0000 0.66180  0.28610  0.45920  Biso   1.000  C
  C25      1.0000 0.61740  0.28820  0.44310  Biso   1.000  C
  H14      1.0000 0.60290  0.37850  0.44430  Biso   1.000  H
  C26      1.0000 0.59340  0.16130  0.42500  Biso   1.000  C
  H15      1.0000 0.56300  0.16470  0.41490  Biso   1.000  H
  C27      1.0000 0.61500  0.02980  0.42210  Biso   1.000  C
  C28      1.0000 0.65970  0.02370  0.43990  Biso   1.000  C
  H16      1.0000 0.67430  0.93270  0.43960  Biso   1.000  H
  C29      1.0000 0.68280  0.15200  0.45810  Biso   1.000  C
  H17      1.0000 0.71310  0.14760  0.47000  Biso   1.000  H
  C30      1.0000 0.60560  0.75370  0.40420  Biso   1.000  C
  H18      1.0000 0.63160  0.71750  0.42450  Biso   1.000  H
  C31      1.0000 0.57470  0.67060  0.37420  Biso   1.000  C
  H19      1.0000 0.57460  0.56600  0.36990  Biso   1.000  H
  C32      1.0000 0.54310  0.77450  0.35100  Biso   1.000  C
  C33      1.0000 0.50190  0.75190  0.31450  Biso   1.000  C
  C34      1.0000 0.48380  0.60860  0.30530  Biso   1.000  C
  H20      1.0000 0.49990  0.52580  0.32050  Biso   1.000  H
  C35      1.0000 0.42370  0.70610  0.25430  Biso   1.000  C
  H21      1.0000 0.39590  0.69460  0.23320  Biso   1.000  H
  C36      1.0000 0.44190  0.84900  0.26210  Biso   1.000  C
  H22      1.0000 0.42640  0.93130  0.24590  Biso   1.000  H
  N1       1.0000 0.71740  0.64610  0.44160  Biso   1.000  N
  N2       1.0000 0.76760  0.91230  0.46380  Biso   1.000  N
  N3       1.0000 0.69430  0.94130  0.19340  Biso   1.000  N
  N4       1.0000 0.66700  0.04740  0.16870  Biso   1.000  N
  N5       1.0000 0.63000  0.26140  0.10570  Biso   1.000  N
  N6       1.0000 0.63170  0.23990  0.01540  Biso   1.000  N
  N7       1.0000 0.59220  0.89860  0.39970  Biso   1.000  N
  N8       1.0000 0.55340  0.91340  0.36680  Biso   1.000  N
  N9       1.0000 0.48160  0.87210  0.29260  Biso   1.000  N
  N10      1.0000 0.44460  0.58440  0.27590  Biso   1.000  N
  Cu4      1.0000 0.37198  0.24769  0.32720  Biso   1.000  Cu
  Cu5      1.0000 0.41663  0.37012  0.27114  Biso   1.000  Cu
  Cu6      1.0000 0.48836  0.07623  0.18585  Biso   1.000  Cu
  I4       1.0000 0.33666  0.43831  0.26609  Biso   1.000  I
  I5       1.0000 0.42842  0.24027  0.19949  Biso   1.000  I
  I6       1.0000 0.54119  0.22322  0.15033  Biso   1.000  I
  C37      1.0000 0.30560  0.51270  0.06310  Biso   1.000  C
  C38      1.0000 0.32350  0.47500  0.11070  Biso   1.000  C
  H23      1.0000 0.33940  0.38810  0.12270  Biso   1.000  H
  C39      1.0000 0.31330  0.58670  0.13510  Biso   1.000  C
  H24      1.0000 0.32150  0.59330  0.16720  Biso   1.000  H
  C40      1.0000 0.28740  0.69490  0.10290  Biso   1.000  C
  C41      1.0000 0.27010  0.82680  0.11480  Biso   1.000  C
  C42      1.0000 0.28070  0.86100  0.16500  Biso   1.000  C
  C43      1.0000 0.26260  0.77330  0.19220  Biso   1.000  C
  H25      1.0000 0.24360  0.69460  0.17870  Biso   1.000  H
  C44      1.0000 0.27220  0.80020  0.23820  Biso   1.000  C
  H26      1.0000 0.25990  0.73900  0.25580  Biso   1.000  H
  C45      1.0000 0.29940  0.91500  0.25890  Biso   1.000  C
  C46      1.0000 0.31940  0.99840  0.23330  Biso   1.000  C
  H27      1.0000 0.33940  0.07360  0.24750  Biso   1.000  H
  C47      1.0000 0.31010  0.97110  0.18600  Biso   1.000  C
  H28      1.0000 0.32390  0.02780  0.16880  Biso   1.000  H
  C48      1.0000 0.27980  0.87760  0.33100  Biso   1.000  C
  H29      1.0000 0.25810  0.80460  0.32050  Biso   1.000  H
  C49      1.0000 0.29320  0.94540  0.37410  Biso   1.000  C
  H30      1.0000 0.28250  0.92900  0.39870  Biso   1.000  H
  C50      1.0000 0.32660  0.04390  0.37220  Biso   1.000  C
  C51      1.0000 0.34890  0.15130  0.40760  Biso   1.000  C
  C52      1.0000 0.34870  0.14510  0.45260  Biso   1.000  C
  H31      1.0000 0.33320  0.06640  0.46060  Biso   1.000  H
  C53      1.0000 0.38730  0.35000  0.47050  Biso   1.000  C
  H32      1.0000 0.40090  0.42440  0.49180  Biso   1.000  H
  C54      1.0000 0.38890  0.36530  0.42650  Biso   1.000  C
  H33      1.0000 0.40320  0.44810  0.41880  Biso   1.000  H
  C55      1.0000 0.24310  0.92300  0.08300  Biso   1.000  C
  C56      1.0000 0.22130  0.05130  0.09540  Biso   1.000  C
  H34      1.0000 0.22260  0.08130  0.12510  Biso   1.000  H
  C57      1.0000 0.19860  0.11930  0.05530  Biso   1.000  C
  H35      1.0000 0.18160  0.20630  0.05230  Biso   1.000  H
  C58      1.0000 0.20560  0.03340  0.01870  Biso   1.000  C
  C59      1.0000 0.31160  0.42900  0.02740  Biso   1.000  C
  C60      1.0000 0.33820  0.28610  0.04080  Biso   1.000  C
  C61      1.0000 0.38260  0.28820  0.05690  Biso   1.000  C
  H36      1.0000 0.39710  0.37850  0.05570  Biso   1.000  H
  C62      1.0000 0.40660  0.16130  0.07500  Biso   1.000  C
  H37      1.0000 0.43700  0.16470  0.08510  Biso   1.000  H
  C63      1.0000 0.38500  0.02980  0.07790  Biso   1.000  C
  C64      1.0000 0.34030  0.02370  0.06010  Biso   1.000  C
  H38      1.0000 0.32570  0.93270  0.06040  Biso   1.000  H
  C65      1.0000 0.31720  0.15200  0.04190  Biso   1.000  C
  H39      1.0000 0.28690  0.14760  0.03000  Biso   1.000  H
  C66      1.0000 0.39440  0.75370  0.09580  Biso   1.000  C
  H40      1.0000 0.36840  0.71750  0.07550  Biso   1.000  H
  C67      1.0000 0.42530  0.67060  0.12580  Biso   1.000  C
  H41      1.0000 0.42540  0.56600  0.13010  Biso   1.000  H
  C68      1.0000 0.45690  0.77450  0.14900  Biso   1.000  C
  C69      1.0000 0.49810  0.75190  0.18550  Biso   1.000  C
  C70      1.0000 0.51620  0.60860  0.19470  Biso   1.000  C
  H42      1.0000 0.50010  0.52580  0.17950  Biso   1.000  H
  C71      1.0000 0.57630  0.70610  0.24570  Biso   1.000  C
  H43      1.0000 0.60410  0.69460  0.26680  Biso   1.000  H
  C72      1.0000 0.55810  0.84900  0.23790  Biso   1.000  C
  H44      1.0000 0.57360  0.93130  0.25410  Biso   1.000  H
  N11      1.0000 0.28260  0.64610  0.05840  Biso   1.000  N
  N12      1.0000 0.23240  0.91230  0.03620  Biso   1.000  N
  N13      1.0000 0.30570  0.94130  0.30660  Biso   1.000  N
  N14      1.0000 0.33300  0.04740  0.33130  Biso   1.000  N
  N15      1.0000 0.37000  0.26140  0.39430  Biso   1.000  N
  N16      1.0000 0.36830  0.23990  0.48460  Biso   1.000  N
  N17      1.0000 0.40780  0.89860  0.10030  Biso   1.000  N
  N18      1.0000 0.44660  0.91340  0.13320  Biso   1.000  N
  N19      1.0000 0.51840  0.87210  0.20740  Biso   1.000  N
  N20      1.0000 0.55540  0.58440  0.22410  Biso   1.000  N
  Cu7      1.0000 0.87198  0.25231  0.82720  Biso   1.000  Cu
  Cu8      1.0000 0.91663  0.12988  0.77114  Biso   1.000  Cu
  Cu9      1.0000 0.98836  0.42377  0.68585  Biso   1.000  Cu
  I7       1.0000 0.83666  0.06169  0.76609  Biso   1.000  I
  I8       1.0000 0.92842  0.25973  0.69949  Biso   1.000  I
  I9       1.0000 0.04119  0.27678  0.65033  Biso   1.000  I
  C73      1.0000 0.80560  0.98730  0.56310  Biso   1.000  C
  C74      1.0000 0.82350  0.02500  0.61070  Biso   1.000  C
  H45      1.0000 0.83940  0.11190  0.62270  Biso   1.000  H
  C75      1.0000 0.81330  0.91330  0.63510  Biso   1.000  C
  H46      1.0000 0.82150  0.90670  0.66720  Biso   1.000  H
  C76      1.0000 0.78740  0.80510  0.60290  Biso   1.000  C
  C77      1.0000 0.77010  0.67320  0.61480  Biso   1.000  C
  C78      1.0000 0.78070  0.63900  0.66500  Biso   1.000  C
  C79      1.0000 0.76260  0.72670  0.69220  Biso   1.000  C
  H47      1.0000 0.74360  0.80540  0.67870  Biso   1.000  H
  C80      1.0000 0.77220  0.69980  0.73820  Biso   1.000  C
  H48      1.0000 0.75990  0.76100  0.75580  Biso   1.000  H
  C81      1.0000 0.79940  0.58500  0.75890  Biso   1.000  C
  C82      1.0000 0.81940  0.50160  0.73330  Biso   1.000  C
  H49      1.0000 0.83940  0.42640  0.74750  Biso   1.000  H
  C83      1.0000 0.81010  0.52890  0.68600  Biso   1.000  C
  H50      1.0000 0.82390  0.47220  0.66880  Biso   1.000  H
  C84      1.0000 0.77980  0.62240  0.83100  Biso   1.000  C
  H51      1.0000 0.75810  0.69540  0.82050  Biso   1.000  H
  C85      1.0000 0.79320  0.55460  0.87410  Biso   1.000  C
  H52      1.0000 0.78250  0.57100  0.89870  Biso   1.000  H
  C86      1.0000 0.82660  0.45610  0.87220  Biso   1.000  C
  C87      1.0000 0.84890  0.34870  0.90760  Biso   1.000  C
  C88      1.0000 0.84870  0.35490  0.95260  Biso   1.000  C
  H53      1.0000 0.83320  0.43360  0.96060  Biso   1.000  H
  C89      1.0000 0.88730  0.15000  0.97050  Biso   1.000  C
  H54      1.0000 0.90090  0.07560  0.99180  Biso   1.000  H
  C90      1.0000 0.88890  0.13470  0.92650  Biso   1.000  C
  H55      1.0000 0.90320  0.05190  0.91880  Biso   1.000  H
  C91      1.0000 0.74310  0.57700  0.58300  Biso   1.000  C
  C92      1.0000 0.72130  0.44870  0.59540  Biso   1.000  C
  H56      1.0000 0.72260  0.41870  0.62510  Biso   1.000  H
  C93      1.0000 0.69860  0.38070  0.55530  Biso   1.000  C
  H57      1.0000 0.68160  0.29370  0.55230  Biso   1.000  H
  C94      1.0000 0.70560  0.46660  0.51870  Biso   1.000  C
  C95      1.0000 0.81160  0.07100  0.52740  Biso   1.000  C
  C96      1.0000 0.83820  0.21390  0.54080  Biso   1.000  C
  C97      1.0000 0.88260  0.21180  0.55690  Biso   1.000  C
  H58      1.0000 0.89710  0.12150  0.55570  Biso   1.000  H
  C98      1.0000 0.90660  0.33870  0.57500  Biso   1.000  C
  H59      1.0000 0.93700  0.33530  0.58510  Biso   1.000  H
  C99      1.0000 0.88500  0.47020  0.57790  Biso   1.000  C
  C100     1.0000 0.84030  0.47630  0.56010  Biso   1.000  C
  H60      1.0000 0.82570  0.56730  0.56040  Biso   1.000  H
  C101     1.0000 0.81720  0.34800  0.54190  Biso   1.000  C
  H61      1.0000 0.78690  0.35240  0.53000  Biso   1.000  H
  C102     1.0000 0.89440  0.74630  0.59580  Biso   1.000  C
  H62      1.0000 0.86840  0.78250  0.57550  Biso   1.000  H
  C103     1.0000 0.92530  0.82940  0.62580  Biso   1.000  C
  H63      1.0000 0.92540  0.93400  0.63010  Biso   1.000  H
  C104     1.0000 0.95690  0.72550  0.64900  Biso   1.000  C
  C105     1.0000 0.99810  0.74810  0.68550  Biso   1.000  C
  C106     1.0000 0.01620  0.89140  0.69470  Biso   1.000  C
  H64      1.0000 0.00010  0.97420  0.67950  Biso   1.000  H
  C107     1.0000 0.07630  0.79390  0.74570  Biso   1.000  C
  H65      1.0000 0.10410  0.80540  0.76680  Biso   1.000  H
  C108     1.0000 0.05810  0.65100  0.73790  Biso   1.000  C
  H66      1.0000 0.07360  0.56870  0.75410  Biso   1.000  H
  N21      1.0000 0.78260  0.85390  0.55840  Biso   1.000  N
  N22      1.0000 0.73240  0.58770  0.53620  Biso   1.000  N
  N23      1.0000 0.80570  0.55870  0.80660  Biso   1.000  N
  N24      1.0000 0.83300  0.45260  0.83130  Biso   1.000  N
  N25      1.0000 0.87000  0.23860  0.89430  Biso   1.000  N
  N26      1.0000 0.86830  0.26010  0.98460  Biso   1.000  N
  N27      1.0000 0.90780  0.60140  0.60030  Biso   1.000  N
  N28      1.0000 0.94660  0.58660  0.63320  Biso   1.000  N
  N29      1.0000 0.01840  0.62790  0.70740  Biso   1.000  N
  N30      1.0000 0.05540  0.91560  0.72410  Biso   1.000  N
  Cu10     1.0000 0.12802  0.25231  0.67280  Biso   1.000  Cu
  Cu11     1.0000 0.08337  0.12988  0.72886  Biso   1.000  Cu
  Cu12     1.0000 0.01164  0.42377  0.81415  Biso   1.000  Cu
  I10      1.0000 0.16334  0.06169  0.73391  Biso   1.000  I
  I11      1.0000 0.07158  0.25973  0.80051  Biso   1.000  I
  I12      1.0000 0.95881  0.27678  0.84967  Biso   1.000  I
  C109     1.0000 0.19440  0.98730  0.93690  Biso   1.000  C
  C110     1.0000 0.17650  0.02500  0.88930  Biso   1.000  C
  H67      1.0000 0.16060  0.11190  0.87730  Biso   1.000  H
  C111     1.0000 0.18670  0.91330  0.86490  Biso   1.000  C
  H68      1.0000 0.17850  0.90670  0.83280  Biso   1.000  H
  C112     1.0000 0.21260  0.80510  0.89710  Biso   1.000  C
  C113     1.0000 0.22990  0.67320  0.88520  Biso   1.000  C
  C114     1.0000 0.21930  0.63900  0.83500  Biso   1.000  C
  C115     1.0000 0.23740  0.72670  0.80780  Biso   1.000  C
  H69      1.0000 0.25640  0.80540  0.82130  Biso   1.000  H
  C116     1.0000 0.22780  0.69980  0.76180  Biso   1.000  C
  H70      1.0000 0.24010  0.76100  0.74420  Biso   1.000  H
  C117     1.0000 0.20060  0.58500  0.74110  Biso   1.000  C
  C118     1.0000 0.18060  0.50160  0.76670  Biso   1.000  C
  H71      1.0000 0.16060  0.42640  0.75250  Biso   1.000  H
  C119     1.0000 0.18990  0.52890  0.81400  Biso   1.000  C
  H72      1.0000 0.17610  0.47220  0.83120  Biso   1.000  H
  C120     1.0000 0.22020  0.62240  0.66900  Biso   1.000  C
  H73      1.0000 0.24190  0.69540  0.67950  Biso   1.000  H
  C121     1.0000 0.20680  0.55460  0.62590  Biso   1.000  C
  H74      1.0000 0.21750  0.57100  0.60130  Biso   1.000  H
  C122     1.0000 0.17340  0.45610  0.62780  Biso   1.000  C
  C123     1.0000 0.15110  0.34870  0.59240  Biso   1.000  C
  C124     1.0000 0.15130  0.35490  0.54740  Biso   1.000  C
  H75      1.0000 0.16680  0.43360  0.53940  Biso   1.000  H
  C125     1.0000 0.11270  0.15000  0.52950  Biso   1.000  C
  H76      1.0000 0.09910  0.07560  0.50820  Biso   1.000  H
  C126     1.0000 0.11110  0.13470  0.57350  Biso   1.000  C
  H77      1.0000 0.09680  0.05190  0.58120  Biso   1.000  H
  C127     1.0000 0.25690  0.57700  0.91700  Biso   1.000  C
  C128     1.0000 0.27870  0.44870  0.90460  Biso   1.000  C
  H78      1.0000 0.27740  0.41870  0.87490  Biso   1.000  H
  C129     1.0000 0.30140  0.38070  0.94470  Biso   1.000  C
  H79      1.0000 0.31840  0.29370  0.94770  Biso   1.000  H
  C130     1.0000 0.29440  0.46660  0.98130  Biso   1.000  C
  C131     1.0000 0.18840  0.07100  0.97260  Biso   1.000  C
  C132     1.0000 0.16180  0.21390  0.95920  Biso   1.000  C
  C133     1.0000 0.11740  0.21180  0.94310  Biso   1.000  C
  H80      1.0000 0.10290  0.12150  0.94430  Biso   1.000  H
  C134     1.0000 0.09340  0.33870  0.92500  Biso   1.000  C
  H81      1.0000 0.06300  0.33530  0.91490  Biso   1.000  H
  C135     1.0000 0.11500  0.47020  0.92210  Biso   1.000  C
  C136     1.0000 0.15970  0.47630  0.93990  Biso   1.000  C
  H82      1.0000 0.17430  0.56730  0.93960  Biso   1.000  H
  C137     1.0000 0.18280  0.34800  0.95810  Biso   1.000  C
  H83      1.0000 0.21310  0.35240  0.97000  Biso   1.000  H
  C138     1.0000 0.10560  0.74630  0.90420  Biso   1.000  C
  H84      1.0000 0.13160  0.78250  0.92450  Biso   1.000  H
  C139     1.0000 0.07470  0.82940  0.87420  Biso   1.000  C
  H85      1.0000 0.07460  0.93400  0.86990  Biso   1.000  H
  C140     1.0000 0.04310  0.72550  0.85100  Biso   1.000  C
  C141     1.0000 0.00190  0.74810  0.81450  Biso   1.000  C
  C142     1.0000 0.98380  0.89140  0.80530  Biso   1.000  C
  H86      1.0000 0.99990  0.97420  0.82050  Biso   1.000  H
  C143     1.0000 0.92370  0.79390  0.75430  Biso   1.000  C
  H87      1.0000 0.89590  0.80540  0.73320  Biso   1.000  H
  C144     1.0000 0.94190  0.65100  0.76210  Biso   1.000  C
  H88      1.0000 0.92640  0.56870  0.74590  Biso   1.000  H
  N31      1.0000 0.21740  0.85390  0.94160  Biso   1.000  N
  N32      1.0000 0.26760  0.58770  0.96380  Biso   1.000  N
  N33      1.0000 0.19430  0.55870  0.69340  Biso   1.000  N
  N34      1.0000 0.16700  0.45260  0.66870  Biso   1.000  N
  N35      1.0000 0.13000  0.23860  0.60570  Biso   1.000  N
  N36      1.0000 0.13170  0.26010  0.51540  Biso   1.000  N
  N37      1.0000 0.09220  0.60140  0.89970  Biso   1.000  N
  N38      1.0000 0.05340  0.58660  0.86680  Biso   1.000  N
  N39      1.0000 0.98160  0.62790  0.79260  Biso   1.000  N
  N40      1.0000 0.94460  0.91560  0.77590  Biso   1.000  N
  Cu13     1.0000 0.75000  0.75000  0.50000  Biso   1.000  Cu
  Cu14     1.0000 0.25000  0.75000  0.00000  Biso   1.000  Cu
  Cu15     1.0000 0.12802  0.74769  0.17280  Biso   1.000  Cu
  Cu16     1.0000 0.08337  0.87012  0.22886  Biso   1.000  Cu
  Cu17     1.0000 0.01164  0.57623  0.31415  Biso   1.000  Cu
  I13      1.0000 0.16334  0.93831  0.23391  Biso   1.000  I
  I14      1.0000 0.07158  0.74027  0.30051  Biso   1.000  I
  I15      1.0000 0.95881  0.72322  0.34967  Biso   1.000  I
  C145     1.0000 0.19440  0.01270  0.43690  Biso   1.000  C
  C146     1.0000 0.17650  0.97500  0.38930  Biso   1.000  C
  H89      1.0000 0.16060  0.88810  0.37730  Biso   1.000  H
  C147     1.0000 0.18670  0.08670  0.36490  Biso   1.000  C
  H90      1.0000 0.17850  0.09330  0.33280  Biso   1.000  H
  C148     1.0000 0.21260  0.19490  0.39710  Biso   1.000  C
  C149     1.0000 0.22990  0.32680  0.38520  Biso   1.000  C
  C150     1.0000 0.21930  0.36100  0.33500  Biso   1.000  C
  C151     1.0000 0.23740  0.27330  0.30780  Biso   1.000  C
  H91      1.0000 0.25640  0.19460  0.32130  Biso   1.000  H
  C152     1.0000 0.22780  0.30020  0.26180  Biso   1.000  C
  H92      1.0000 0.24010  0.23900  0.24420  Biso   1.000  H
  C153     1.0000 0.20060  0.41500  0.24110  Biso   1.000  C
  C154     1.0000 0.18060  0.49840  0.26670  Biso   1.000  C
  H93      1.0000 0.16060  0.57360  0.25250  Biso   1.000  H
  C155     1.0000 0.18990  0.47110  0.31400  Biso   1.000  C
  H94      1.0000 0.17610  0.52780  0.33120  Biso   1.000  H
  C156     1.0000 0.22020  0.37760  0.16900  Biso   1.000  C
  H95      1.0000 0.24190  0.30460  0.17950  Biso   1.000  H
  C157     1.0000 0.20680  0.44540  0.12590  Biso   1.000  C
  H96      1.0000 0.21750  0.42900  0.10130  Biso   1.000  H
  C158     1.0000 0.17340  0.54390  0.12780  Biso   1.000  C
  C159     1.0000 0.15110  0.65130  0.09240  Biso   1.000  C
  C160     1.0000 0.15130  0.64510  0.04740  Biso   1.000  C
  H97      1.0000 0.16680  0.56640  0.03940  Biso   1.000  H
  C161     1.0000 0.11270  0.85000  0.02950  Biso   1.000  C
  H98      1.0000 0.09910  0.92440  0.00820  Biso   1.000  H
  C162     1.0000 0.11110  0.86530  0.07350  Biso   1.000  C
  H99      1.0000 0.09680  0.94810  0.08120  Biso   1.000  H
  C163     1.0000 0.25690  0.42300  0.41700  Biso   1.000  C
  C164     1.0000 0.27870  0.55130  0.40460  Biso   1.000  C
  H100     1.0000 0.27740  0.58130  0.37490  Biso   1.000  H
  C165     1.0000 0.30140  0.61930  0.44470  Biso   1.000  C
  H101     1.0000 0.31840  0.70630  0.44770  Biso   1.000  H
  C166     1.0000 0.29440  0.53340  0.48130  Biso   1.000  C
  C167     1.0000 0.18840  0.92900  0.47260  Biso   1.000  C
  C168     1.0000 0.16180  0.78610  0.45920  Biso   1.000  C
  C169     1.0000 0.11740  0.78820  0.44310  Biso   1.000  C
  H102     1.0000 0.10290  0.87850  0.44430  Biso   1.000  H
  C170     1.0000 0.09340  0.66130  0.42500  Biso   1.000  C
  H103     1.0000 0.06300  0.66470  0.41490  Biso   1.000  H
  C171     1.0000 0.11500  0.52980  0.42210  Biso   1.000  C
  C172     1.0000 0.15970  0.52370  0.43990  Biso   1.000  C
  H104     1.0000 0.17430  0.43270  0.43960  Biso   1.000  H
  C173     1.0000 0.18280  0.65200  0.45810  Biso   1.000  C
  H105     1.0000 0.21310  0.64760  0.47000  Biso   1.000  H
  C174     1.0000 0.10560  0.25370  0.40420  Biso   1.000  C
  H106     1.0000 0.13160  0.21750  0.42450  Biso   1.000  H
  C175     1.0000 0.07470  0.17060  0.37420  Biso   1.000  C
  H107     1.0000 0.07460  0.06600  0.36990  Biso   1.000  H
  C176     1.0000 0.04310  0.27450  0.35100  Biso   1.000  C
  C177     1.0000 0.00190  0.25190  0.31450  Biso   1.000  C
  C178     1.0000 0.98380  0.10860  0.30530  Biso   1.000  C
  H108     1.0000 0.99990  0.02580  0.32050  Biso   1.000  H
  C179     1.0000 0.92370  0.20610  0.25430  Biso   1.000  C
  H109     1.0000 0.89590  0.19460  0.23320  Biso   1.000  H
  C180     1.0000 0.94190  0.34900  0.26210  Biso   1.000  C
  H110     1.0000 0.92640  0.43130  0.24590  Biso   1.000  H
  N41      1.0000 0.21740  0.14610  0.44160  Biso   1.000  N
  N42      1.0000 0.26760  0.41230  0.46380  Biso   1.000  N
  N43      1.0000 0.19430  0.44130  0.19340  Biso   1.000  N
  N44      1.0000 0.16700  0.54740  0.16870  Biso   1.000  N
  N45      1.0000 0.13000  0.76140  0.10570  Biso   1.000  N
  N46      1.0000 0.13170  0.73990  0.01540  Biso   1.000  N
  N47      1.0000 0.09220  0.39860  0.39970  Biso   1.000  N
  N48      1.0000 0.05340  0.41340  0.36680  Biso   1.000  N
  N49      1.0000 0.98160  0.37210  0.29260  Biso   1.000  N
  N50      1.0000 0.94460  0.08440  0.27590  Biso   1.000  N
  Cu18     1.0000 0.87198  0.74769  0.32720  Biso   1.000  Cu
  Cu19     1.0000 0.91663  0.87012  0.27114  Biso   1.000  Cu
  Cu20     1.0000 0.98836  0.57623  0.18585  Biso   1.000  Cu
  I16      1.0000 0.83666  0.93831  0.26609  Biso   1.000  I
  I17      1.0000 0.92842  0.74027  0.19949  Biso   1.000  I
  I18      1.0000 0.04119  0.72322  0.15033  Biso   1.000  I
  C181     1.0000 0.80560  0.01270  0.06310  Biso   1.000  C
  C182     1.0000 0.82350  0.97500  0.11070  Biso   1.000  C
  H111     1.0000 0.83940  0.88810  0.12270  Biso   1.000  H
  C183     1.0000 0.81330  0.08670  0.13510  Biso   1.000  C
  H112     1.0000 0.82150  0.09330  0.16720  Biso   1.000  H
  C184     1.0000 0.78740  0.19490  0.10290  Biso   1.000  C
  C185     1.0000 0.77010  0.32680  0.11480  Biso   1.000  C
  C186     1.0000 0.78070  0.36100  0.16500  Biso   1.000  C
  C187     1.0000 0.76260  0.27330  0.19220  Biso   1.000  C
  H113     1.0000 0.74360  0.19460  0.17870  Biso   1.000  H
  C188     1.0000 0.77220  0.30020  0.23820  Biso   1.000  C
  H114     1.0000 0.75990  0.23900  0.25580  Biso   1.000  H
  C189     1.0000 0.79940  0.41500  0.25890  Biso   1.000  C
  C190     1.0000 0.81940  0.49840  0.23330  Biso   1.000  C
  H115     1.0000 0.83940  0.57360  0.24750  Biso   1.000  H
  C191     1.0000 0.81010  0.47110  0.18600  Biso   1.000  C
  H116     1.0000 0.82390  0.52780  0.16880  Biso   1.000  H
  C192     1.0000 0.77980  0.37760  0.33100  Biso   1.000  C
  H117     1.0000 0.75810  0.30460  0.32050  Biso   1.000  H
  C193     1.0000 0.79320  0.44540  0.37410  Biso   1.000  C
  H118     1.0000 0.78250  0.42900  0.39870  Biso   1.000  H
  C194     1.0000 0.82660  0.54390  0.37220  Biso   1.000  C
  C195     1.0000 0.84890  0.65130  0.40760  Biso   1.000  C
  C196     1.0000 0.84870  0.64510  0.45260  Biso   1.000  C
  H119     1.0000 0.83320  0.56640  0.46060  Biso   1.000  H
  C197     1.0000 0.88730  0.85000  0.47050  Biso   1.000  C
  H120     1.0000 0.90090  0.92440  0.49180  Biso   1.000  H
  C198     1.0000 0.88890  0.86530  0.42650  Biso   1.000  C
  H121     1.0000 0.90320  0.94810  0.41880  Biso   1.000  H
  C199     1.0000 0.74310  0.42300  0.08300  Biso   1.000  C
  C200     1.0000 0.72130  0.55130  0.09540  Biso   1.000  C
  H122     1.0000 0.72260  0.58130  0.12510  Biso   1.000  H
  C201     1.0000 0.69860  0.61930  0.05530  Biso   1.000  C
  H123     1.0000 0.68160  0.70630  0.05230  Biso   1.000  H
  C202     1.0000 0.70560  0.53340  0.01870  Biso   1.000  C
  C203     1.0000 0.81160  0.92900  0.02740  Biso   1.000  C
  C204     1.0000 0.83820  0.78610  0.04080  Biso   1.000  C
  C205     1.0000 0.88260  0.78820  0.05690  Biso   1.000  C
  H124     1.0000 0.89710  0.87850  0.05570  Biso   1.000  H
  C206     1.0000 0.90660  0.66130  0.07500  Biso   1.000  C
  H125     1.0000 0.93700  0.66470  0.08510  Biso   1.000  H
  C207     1.0000 0.88500  0.52980  0.07790  Biso   1.000  C
  C208     1.0000 0.84030  0.52370  0.06010  Biso   1.000  C
  H126     1.0000 0.82570  0.43270  0.06040  Biso   1.000  H
  C209     1.0000 0.81720  0.65200  0.04190  Biso   1.000  C
  H127     1.0000 0.78690  0.64760  0.03000  Biso   1.000  H
  C210     1.0000 0.89440  0.25370  0.09580  Biso   1.000  C
  H128     1.0000 0.86840  0.21750  0.07550  Biso   1.000  H
  C211     1.0000 0.92530  0.17060  0.12580  Biso   1.000  C
  H129     1.0000 0.92540  0.06600  0.13010  Biso   1.000  H
  C212     1.0000 0.95690  0.27450  0.14900  Biso   1.000  C
  C213     1.0000 0.99810  0.25190  0.18550  Biso   1.000  C
  C214     1.0000 0.01620  0.10860  0.19470  Biso   1.000  C
  H130     1.0000 0.00010  0.02580  0.17950  Biso   1.000  H
  C215     1.0000 0.07630  0.20610  0.24570  Biso   1.000  C
  H131     1.0000 0.10410  0.19460  0.26680  Biso   1.000  H
  C216     1.0000 0.05810  0.34900  0.23790  Biso   1.000  C
  H132     1.0000 0.07360  0.43130  0.25410  Biso   1.000  H
  N51      1.0000 0.78260  0.14610  0.05840  Biso   1.000  N
  N52      1.0000 0.73240  0.41230  0.03620  Biso   1.000  N
  N53      1.0000 0.80570  0.44130  0.30660  Biso   1.000  N
  N54      1.0000 0.83300  0.54740  0.33130  Biso   1.000  N
  N55      1.0000 0.87000  0.76140  0.39430  Biso   1.000  N
  N56      1.0000 0.86830  0.73990  0.48460  Biso   1.000  N
  N57      1.0000 0.90780  0.39860  0.10030  Biso   1.000  N
  N58      1.0000 0.94660  0.41340  0.13320  Biso   1.000  N
  N59      1.0000 0.01840  0.37210  0.20740  Biso   1.000  N
  N60      1.0000 0.05540  0.08440  0.22410  Biso   1.000  N
  Cu21     1.0000 0.37198  0.75231  0.82720  Biso   1.000  Cu
  Cu22     1.0000 0.41663  0.62988  0.77114  Biso   1.000  Cu
  Cu23     1.0000 0.48836  0.92377  0.68585  Biso   1.000  Cu
  I19      1.0000 0.33666  0.56169  0.76609  Biso   1.000  I
  I20      1.0000 0.42842  0.75973  0.69949  Biso   1.000  I
  I21      1.0000 0.54119  0.77678  0.65033  Biso   1.000  I
  C217     1.0000 0.30560  0.48730  0.56310  Biso   1.000  C
  C218     1.0000 0.32350  0.52500  0.61070  Biso   1.000  C
  H133     1.0000 0.33940  0.61190  0.62270  Biso   1.000  H
  C219     1.0000 0.31330  0.41330  0.63510  Biso   1.000  C
  H134     1.0000 0.32150  0.40670  0.66720  Biso   1.000  H
  C220     1.0000 0.28740  0.30510  0.60290  Biso   1.000  C
  C221     1.0000 0.27010  0.17320  0.61480  Biso   1.000  C
  C222     1.0000 0.28070  0.13900  0.66500  Biso   1.000  C
  C223     1.0000 0.26260  0.22670  0.69220  Biso   1.000  C
  H135     1.0000 0.24360  0.30540  0.67870  Biso   1.000  H
  C224     1.0000 0.27220  0.19980  0.73820  Biso   1.000  C
  H136     1.0000 0.25990  0.26100  0.75580  Biso   1.000  H
  C225     1.0000 0.29940  0.08500  0.75890  Biso   1.000  C
  C226     1.0000 0.31940  0.00160  0.73330  Biso   1.000  C
  H137     1.0000 0.33940  0.92640  0.74750  Biso   1.000  H
  C227     1.0000 0.31010  0.02890  0.68600  Biso   1.000  C
  H138     1.0000 0.32390  0.97220  0.66880  Biso   1.000  H
  C228     1.0000 0.27980  0.12240  0.83100  Biso   1.000  C
  H139     1.0000 0.25810  0.19540  0.82050  Biso   1.000  H
  C229     1.0000 0.29320  0.05460  0.87410  Biso   1.000  C
  H140     1.0000 0.28250  0.07100  0.89870  Biso   1.000  H
  C230     1.0000 0.32660  0.95610  0.87220  Biso   1.000  C
  C231     1.0000 0.34890  0.84870  0.90760  Biso   1.000  C
  C232     1.0000 0.34870  0.85490  0.95260  Biso   1.000  C
  H141     1.0000 0.33320  0.93360  0.96060  Biso   1.000  H
  C233     1.0000 0.38730  0.65000  0.97050  Biso   1.000  C
  H142     1.0000 0.40090  0.57560  0.99180  Biso   1.000  H
  C234     1.0000 0.38890  0.63470  0.92650  Biso   1.000  C
  H143     1.0000 0.40320  0.55190  0.91880  Biso   1.000  H
  C235     1.0000 0.24310  0.07700  0.58300  Biso   1.000  C
  C236     1.0000 0.22130  0.94870  0.59540  Biso   1.000  C
  H144     1.0000 0.22260  0.91870  0.62510  Biso   1.000  H
  C237     1.0000 0.19860  0.88070  0.55530  Biso   1.000  C
  H145     1.0000 0.18160  0.79370  0.55230  Biso   1.000  H
  C238     1.0000 0.20560  0.96660  0.51870  Biso   1.000  C
  C239     1.0000 0.31160  0.57100  0.52740  Biso   1.000  C
  C240     1.0000 0.33820  0.71390  0.54080  Biso   1.000  C
  C241     1.0000 0.38260  0.71180  0.55690  Biso   1.000  C
  H146     1.0000 0.39710  0.62150  0.55570  Biso   1.000  H
  C242     1.0000 0.40660  0.83870  0.57500  Biso   1.000  C
  H147     1.0000 0.43700  0.83530  0.58510  Biso   1.000  H
  C243     1.0000 0.38500  0.97020  0.57790  Biso   1.000  C
  C244     1.0000 0.34030  0.97630  0.56010  Biso   1.000  C
  H148     1.0000 0.32570  0.06730  0.56040  Biso   1.000  H
  C245     1.0000 0.31720  0.84800  0.54190  Biso   1.000  C
  H149     1.0000 0.28690  0.85240  0.53000  Biso   1.000  H
  C246     1.0000 0.39440  0.24630  0.59580  Biso   1.000  C
  H150     1.0000 0.36840  0.28250  0.57550  Biso   1.000  H
  C247     1.0000 0.42530  0.32940  0.62580  Biso   1.000  C
  H151     1.0000 0.42540  0.43400  0.63010  Biso   1.000  H
  C248     1.0000 0.45690  0.22550  0.64900  Biso   1.000  C
  C249     1.0000 0.49810  0.24810  0.68550  Biso   1.000  C
  C250     1.0000 0.51620  0.39140  0.69470  Biso   1.000  C
  H152     1.0000 0.50010  0.47420  0.67950  Biso   1.000  H
  C251     1.0000 0.57630  0.29390  0.74570  Biso   1.000  C
  H153     1.0000 0.60410  0.30540  0.76680  Biso   1.000  H
  C252     1.0000 0.55810  0.15100  0.73790  Biso   1.000  C
  H154     1.0000 0.57360  0.06870  0.75410  Biso   1.000  H
  N61      1.0000 0.28260  0.35390  0.55840  Biso   1.000  N
  N62      1.0000 0.23240  0.08770  0.53620  Biso   1.000  N
  N63      1.0000 0.30570  0.05870  0.80660  Biso   1.000  N
  N64      1.0000 0.33300  0.95260  0.83130  Biso   1.000  N
  N65      1.0000 0.37000  0.73860  0.89430  Biso   1.000  N
  N66      1.0000 0.36830  0.76010  0.98460  Biso   1.000  N
  N67      1.0000 0.40780  0.10140  0.60030  Biso   1.000  N
  N68      1.0000 0.44660  0.08660  0.63320  Biso   1.000  N
  N69      1.0000 0.51840  0.12790  0.70740  Biso   1.000  N
  N70      1.0000 0.55540  0.41560  0.72410  Biso   1.000  N
  Cu24     1.0000 0.62802  0.75231  0.67280  Biso   1.000  Cu
  Cu25     1.0000 0.58337  0.62988  0.72886  Biso   1.000  Cu
  Cu26     1.0000 0.51164  0.92377  0.81415  Biso   1.000  Cu
  I22      1.0000 0.66334  0.56169  0.73391  Biso   1.000  I
  I23      1.0000 0.57158  0.75973  0.80051  Biso   1.000  I
  I24      1.0000 0.45881  0.77678  0.84967  Biso   1.000  I
  C253     1.0000 0.69440  0.48730  0.93690  Biso   1.000  C
  C254     1.0000 0.67650  0.52500  0.88930  Biso   1.000  C
  H155     1.0000 0.66060  0.61190  0.87730  Biso   1.000  H
  C255     1.0000 0.68670  0.41330  0.86490  Biso   1.000  C
  H156     1.0000 0.67850  0.40670  0.83280  Biso   1.000  H
  C256     1.0000 0.71260  0.30510  0.89710  Biso   1.000  C
  C257     1.0000 0.72990  0.17320  0.88520  Biso   1.000  C
  C258     1.0000 0.71930  0.13900  0.83500  Biso   1.000  C
  C259     1.0000 0.73740  0.22670  0.80780  Biso   1.000  C
  H157     1.0000 0.75640  0.30540  0.82130  Biso   1.000  H
  C260     1.0000 0.72780  0.19980  0.76180  Biso   1.000  C
  H158     1.0000 0.74010  0.26100  0.74420  Biso   1.000  H
  C261     1.0000 0.70060  0.08500  0.74110  Biso   1.000  C
  C262     1.0000 0.68060  0.00160  0.76670  Biso   1.000  C
  H159     1.0000 0.66060  0.92640  0.75250  Biso   1.000  H
  C263     1.0000 0.68990  0.02890  0.81400  Biso   1.000  C
  H160     1.0000 0.67610  0.97220  0.83120  Biso   1.000  H
  C264     1.0000 0.72020  0.12240  0.66900  Biso   1.000  C
  H161     1.0000 0.74190  0.19540  0.67950  Biso   1.000  H
  C265     1.0000 0.70680  0.05460  0.62590  Biso   1.000  C
  H162     1.0000 0.71750  0.07100  0.60130  Biso   1.000  H
  C266     1.0000 0.67340  0.95610  0.62780  Biso   1.000  C
  C267     1.0000 0.65110  0.84870  0.59240  Biso   1.000  C
  C268     1.0000 0.65130  0.85490  0.54740  Biso   1.000  C
  H163     1.0000 0.66680  0.93360  0.53940  Biso   1.000  H
  C269     1.0000 0.61270  0.65000  0.52950  Biso   1.000  C
  H164     1.0000 0.59910  0.57560  0.50820  Biso   1.000  H
  C270     1.0000 0.61110  0.63470  0.57350  Biso   1.000  C
  H165     1.0000 0.59680  0.55190  0.58120  Biso   1.000  H
  C271     1.0000 0.75690  0.07700  0.91700  Biso   1.000  C
  C272     1.0000 0.77870  0.94870  0.90460  Biso   1.000  C
  H166     1.0000 0.77740  0.91870  0.87490  Biso   1.000  H
  C273     1.0000 0.80140  0.88070  0.94470  Biso   1.000  C
  H167     1.0000 0.81840  0.79370  0.94770  Biso   1.000  H
  C274     1.0000 0.79440  0.96660  0.98130  Biso   1.000  C
  C275     1.0000 0.68840  0.57100  0.97260  Biso   1.000  C
  C276     1.0000 0.66180  0.71390  0.95920  Biso   1.000  C
  C277     1.0000 0.61740  0.71180  0.94310  Biso   1.000  C
  H168     1.0000 0.60290  0.62150  0.94430  Biso   1.000  H
  C278     1.0000 0.59340  0.83870  0.92500  Biso   1.000  C
  H169     1.0000 0.56300  0.83530  0.91490  Biso   1.000  H
  C279     1.0000 0.61500  0.97020  0.92210  Biso   1.000  C
  C280     1.0000 0.65970  0.97630  0.93990  Biso   1.000  C
  H170     1.0000 0.67430  0.06730  0.93960  Biso   1.000  H
  C281     1.0000 0.68280  0.84800  0.95810  Biso   1.000  C
  H171     1.0000 0.71310  0.85240  0.97000  Biso   1.000  H
  C282     1.0000 0.60560  0.24630  0.90420  Biso   1.000  C
  H172     1.0000 0.63160  0.28250  0.92450  Biso   1.000  H
  C283     1.0000 0.57470  0.32940  0.87420  Biso   1.000  C
  H173     1.0000 0.57460  0.43400  0.86990  Biso   1.000  H
  C284     1.0000 0.54310  0.22550  0.85100  Biso   1.000  C
  C285     1.0000 0.50190  0.24810  0.81450  Biso   1.000  C
  C286     1.0000 0.48380  0.39140  0.80530  Biso   1.000  C
  H174     1.0000 0.49990  0.47420  0.82050  Biso   1.000  H
  C287     1.0000 0.42370  0.29390  0.75430  Biso   1.000  C
  H175     1.0000 0.39590  0.30540  0.73320  Biso   1.000  H
  C288     1.0000 0.44190  0.15100  0.76210  Biso   1.000  C
  H176     1.0000 0.42640  0.06870  0.74590  Biso   1.000  H
  N71      1.0000 0.71740  0.35390  0.94160  Biso   1.000  N
  N72      1.0000 0.76760  0.08770  0.96380  Biso   1.000  N
  N73      1.0000 0.69430  0.05870  0.69340  Biso   1.000  N
  N74      1.0000 0.66700  0.95260  0.66870  Biso   1.000  N
  N75      1.0000 0.63000  0.73860  0.60570  Biso   1.000  N
  N76      1.0000 0.63170  0.76010  0.51540  Biso   1.000  N
  N77      1.0000 0.59220  0.10140  0.89970  Biso   1.000  N
  N78      1.0000 0.55340  0.08660  0.86680  Biso   1.000  N
  N79      1.0000 0.48160  0.12790  0.79260  Biso   1.000  N
  N80      1.0000 0.44460  0.41560  0.77590  Biso   1.000  N
  Cu27     1.0000 0.25000  0.25000  0.50000  Biso   1.000  Cu
  Cu28     1.0000 0.75000  0.25000  0.00000  Biso   1.000  Cu
