data_image0
_cell_length_a       8.2134
_cell_length_b       16.974
_cell_length_c       19.396
_cell_angle_alpha    90
_cell_angle_beta     101.13
_cell_angle_gamma    90

_symmetry_space_group_name_H-M    "P 1"
_symmetry_int_tables_number       1

loop_
  _symmetry_equiv_pos_as_xyz
  'x, y, z'

loop_
  _atom_site_label
  _atom_site_occupancy
  _atom_site_fract_x
  _atom_site_fract_y
  _atom_site_fract_z
  _atom_site_thermal_displace_type
  _atom_site_B_iso_or_equiv
  _atom_site_type_symbol
  C1       1.0000 0.44010  0.06590  0.12640  Biso   1.000  C
  C2       1.0000 0.32170  0.10550  0.16750  Biso   1.000  C
  H1       1.0000 0.23380  0.13160  0.13490  Biso   1.000  H
  H2       1.0000 0.27130  0.06570  0.19240  Biso   1.000  H
  C3       1.0000 0.50340  0.14970  0.28020  Biso   1.000  C
  H3       1.0000 0.52200  0.10240  0.30450  Biso   1.000  H
  C4       1.0000 0.57050  0.22390  0.30010  Biso   1.000  C
  C5       1.0000 0.69190  0.24670  0.36550  Biso   1.000  C
  H4       1.0000 0.74350  0.19960  0.38810  Biso   1.000  H
  H5       1.0000 0.77840  0.27930  0.35260  Biso   1.000  H
  C6       1.0000 0.51750  0.25870  0.45910  Biso   1.000  C
  H6       1.0000 0.49280  0.20580  0.46470  Biso   1.000  H
  C7       1.0000 0.46870  0.32180  0.49290  Biso   1.000  C
  H7       1.0000 0.40220  0.31900  0.52650  Biso   1.000  H
  C8       1.0000 0.61680  0.36890  0.42350  Biso   1.000  C
  H8       1.0000 0.67410  0.40310  0.39930  Biso   1.000  H
  N1       1.0000 0.53050  0.39060  0.47072  Biso   1.000  N
  N2       1.0000 0.61080  0.29030  0.41520  Biso   1.000  N
  N3       1.0000 0.40640  0.16320  0.21780  Biso   1.000  N
  N4       1.0000 0.41220  0.23910  0.19850  Biso   1.000  N
  N5       1.0000 0.51050  0.27520  0.24900  Biso   1.000  N
  O1       1.0000 0.58980  0.06840  0.14833  Biso   1.000  O
  O2       1.0000 0.36830  0.03580  0.06799  Biso   1.000  O
  C9       1.0000 0.55990  0.56590  0.37360  Biso   1.000  C
  C10      1.0000 0.67830  0.60550  0.33250  Biso   1.000  C
  H9       1.0000 0.76620  0.63160  0.36510  Biso   1.000  H
  H10      1.0000 0.72870  0.56570  0.30760  Biso   1.000  H
  C11      1.0000 0.49660  0.64970  0.21980  Biso   1.000  C
  H11      1.0000 0.47800  0.60240  0.19550  Biso   1.000  H
  C12      1.0000 0.42950  0.72390  0.19990  Biso   1.000  C
  C13      1.0000 0.30810  0.74670  0.13450  Biso   1.000  C
  H12      1.0000 0.25650  0.69960  0.11190  Biso   1.000  H
  H13      1.0000 0.22160  0.77930  0.14740  Biso   1.000  H
  C14      1.0000 0.48250  0.75870  0.04090  Biso   1.000  C
  H14      1.0000 0.50720  0.70580  0.03530  Biso   1.000  H
  C15      1.0000 0.53130  0.82180  0.00710  Biso   1.000  C
  H15      1.0000 0.59780  0.81900  0.97350  Biso   1.000  H
  C16      1.0000 0.38320  0.86890  0.07650  Biso   1.000  C
  H16      1.0000 0.32590  0.90310  0.10070  Biso   1.000  H
  N6       1.0000 0.46950  0.89060  0.02928  Biso   1.000  N
  N7       1.0000 0.38920  0.79030  0.08480  Biso   1.000  N
  N8       1.0000 0.59360  0.66320  0.28220  Biso   1.000  N
  N9       1.0000 0.58780  0.73910  0.30150  Biso   1.000  N
  N10      1.0000 0.48950  0.77520  0.25100  Biso   1.000  N
  O3       1.0000 0.41020  0.56840  0.35167  Biso   1.000  O
  O4       1.0000 0.63170  0.53580  0.43201  Biso   1.000  O
  C17      1.0000 0.55990  0.93410  0.87360  Biso   1.000  C
  C18      1.0000 0.67830  0.89450  0.83250  Biso   1.000  C
  H17      1.0000 0.76620  0.86840  0.86510  Biso   1.000  H
  H18      1.0000 0.72870  0.93430  0.80760  Biso   1.000  H
  C19      1.0000 0.49660  0.85030  0.71980  Biso   1.000  C
  H19      1.0000 0.47800  0.89760  0.69550  Biso   1.000  H
  C20      1.0000 0.42950  0.77610  0.69990  Biso   1.000  C
  C21      1.0000 0.30810  0.75330  0.63450  Biso   1.000  C
  H20      1.0000 0.25650  0.80040  0.61190  Biso   1.000  H
  H21      1.0000 0.22160  0.72070  0.64740  Biso   1.000  H
  C22      1.0000 0.48250  0.74130  0.54090  Biso   1.000  C
  H22      1.0000 0.50720  0.79420  0.53530  Biso   1.000  H
  C23      1.0000 0.53130  0.67820  0.50710  Biso   1.000  C
  H23      1.0000 0.59780  0.68100  0.47350  Biso   1.000  H
  C24      1.0000 0.38320  0.63110  0.57650  Biso   1.000  C
  H24      1.0000 0.32590  0.59690  0.60070  Biso   1.000  H
  N11      1.0000 0.46950  0.60940  0.52928  Biso   1.000  N
  N12      1.0000 0.38920  0.70970  0.58480  Biso   1.000  N
  N13      1.0000 0.59360  0.83680  0.78220  Biso   1.000  N
  N14      1.0000 0.58780  0.76090  0.80150  Biso   1.000  N
  N15      1.0000 0.48950  0.72480  0.75100  Biso   1.000  N
  O5       1.0000 0.41020  0.93160  0.85167  Biso   1.000  O
  O6       1.0000 0.63170  0.96420  0.93201  Biso   1.000  O
  C25      1.0000 0.44010  0.43410  0.62640  Biso   1.000  C
  C26      1.0000 0.32170  0.39450  0.66750  Biso   1.000  C
  H25      1.0000 0.23380  0.36840  0.63490  Biso   1.000  H
  H26      1.0000 0.27130  0.43430  0.69240  Biso   1.000  H
  C27      1.0000 0.50340  0.35030  0.78020  Biso   1.000  C
  H27      1.0000 0.52200  0.39760  0.80450  Biso   1.000  H
  C28      1.0000 0.57050  0.27610  0.80010  Biso   1.000  C
  C29      1.0000 0.69190  0.25330  0.86550  Biso   1.000  C
  H28      1.0000 0.74350  0.30040  0.88810  Biso   1.000  H
  H29      1.0000 0.77840  0.22070  0.85260  Biso   1.000  H
  C30      1.0000 0.51750  0.24130  0.95910  Biso   1.000  C
  H30      1.0000 0.49280  0.29420  0.96470  Biso   1.000  H
  C31      1.0000 0.46870  0.17820  0.99290  Biso   1.000  C
  H31      1.0000 0.40220  0.18100  0.02650  Biso   1.000  H
  C32      1.0000 0.61680  0.13110  0.92350  Biso   1.000  C
  H32      1.0000 0.67410  0.09690  0.89930  Biso   1.000  H
  N16      1.0000 0.53050  0.10940  0.97072  Biso   1.000  N
  N17      1.0000 0.61080  0.20970  0.91520  Biso   1.000  N
  N18      1.0000 0.40640  0.33680  0.71780  Biso   1.000  N
  N19      1.0000 0.41220  0.26090  0.69850  Biso   1.000  N
  N20      1.0000 0.51050  0.22480  0.74900  Biso   1.000  N
  O7       1.0000 0.58980  0.43160  0.64833  Biso   1.000  O
  O8       1.0000 0.36830  0.46420  0.56799  Biso   1.000  O
  Cu1      1.0000 0.50000  0.50000  0.50000  Biso   1.000  Cu
  Cu2      1.0000 0.50000  0.00000  0.00000  Biso   1.000  Cu
  C33      1.0000 0.94010  0.56590  0.62640  Biso   1.000  C
  C34      1.0000 0.82170  0.60550  0.66750  Biso   1.000  C
  H33      1.0000 0.73380  0.63160  0.63490  Biso   1.000  H
  H34      1.0000 0.77130  0.56570  0.69240  Biso   1.000  H
  C35      1.0000 0.00340  0.64970  0.78020  Biso   1.000  C
  H35      1.0000 0.02200  0.60240  0.80450  Biso   1.000  H
  C36      1.0000 0.07050  0.72390  0.80010  Biso   1.000  C
  C37      1.0000 0.19190  0.74670  0.86550  Biso   1.000  C
  H36      1.0000 0.24350  0.69960  0.88810  Biso   1.000  H
  H37      1.0000 0.27840  0.77930  0.85260  Biso   1.000  H
  C38      1.0000 0.01750  0.75870  0.95910  Biso   1.000  C
  H38      1.0000 0.99280  0.70580  0.96470  Biso   1.000  H
  C39      1.0000 0.96870  0.82180  0.99290  Biso   1.000  C
  H39      1.0000 0.90220  0.81900  0.02650  Biso   1.000  H
  C40      1.0000 0.11680  0.86890  0.92350  Biso   1.000  C
  H40      1.0000 0.17410  0.90310  0.89930  Biso   1.000  H
  N21      1.0000 0.03050  0.89060  0.97072  Biso   1.000  N
  N22      1.0000 0.11080  0.79030  0.91520  Biso   1.000  N
  N23      1.0000 0.90640  0.66320  0.71780  Biso   1.000  N
  N24      1.0000 0.91220  0.73910  0.69850  Biso   1.000  N
  N25      1.0000 0.01050  0.77520  0.74900  Biso   1.000  N
  O9       1.0000 0.08980  0.56840  0.64833  Biso   1.000  O
  O10      1.0000 0.86830  0.53580  0.56799  Biso   1.000  O
  C41      1.0000 0.05990  0.06590  0.87360  Biso   1.000  C
  C42      1.0000 0.17830  0.10550  0.83250  Biso   1.000  C
  H41      1.0000 0.26620  0.13160  0.86510  Biso   1.000  H
  H42      1.0000 0.22870  0.06570  0.80760  Biso   1.000  H
  C43      1.0000 0.99660  0.14970  0.71980  Biso   1.000  C
  H43      1.0000 0.97800  0.10240  0.69550  Biso   1.000  H
  C44      1.0000 0.92950  0.22390  0.69990  Biso   1.000  C
  C45      1.0000 0.80810  0.24670  0.63450  Biso   1.000  C
  H44      1.0000 0.75650  0.19960  0.61190  Biso   1.000  H
  H45      1.0000 0.72160  0.27930  0.64740  Biso   1.000  H
  C46      1.0000 0.98250  0.25870  0.54090  Biso   1.000  C
  H46      1.0000 0.00720  0.20580  0.53530  Biso   1.000  H
  C47      1.0000 0.03130  0.32180  0.50710  Biso   1.000  C
  H47      1.0000 0.09780  0.31900  0.47350  Biso   1.000  H
  C48      1.0000 0.88320  0.36890  0.57650  Biso   1.000  C
  H48      1.0000 0.82590  0.40310  0.60070  Biso   1.000  H
  N26      1.0000 0.96950  0.39060  0.52928  Biso   1.000  N
  N27      1.0000 0.88920  0.29030  0.58480  Biso   1.000  N
  N28      1.0000 0.09360  0.16320  0.78220  Biso   1.000  N
  N29      1.0000 0.08780  0.23910  0.80150  Biso   1.000  N
  N30      1.0000 0.98950  0.27520  0.75100  Biso   1.000  N
  O11      1.0000 0.91020  0.06840  0.85167  Biso   1.000  O
  O12      1.0000 0.13170  0.03580  0.93201  Biso   1.000  O
  C49      1.0000 0.05990  0.43410  0.37360  Biso   1.000  C
  C50      1.0000 0.17830  0.39450  0.33250  Biso   1.000  C
  H49      1.0000 0.26620  0.36840  0.36510  Biso   1.000  H
  H50      1.0000 0.22870  0.43430  0.30760  Biso   1.000  H
  C51      1.0000 0.99660  0.35030  0.21980  Biso   1.000  C
  H51      1.0000 0.97800  0.39760  0.19550  Biso   1.000  H
  C52      1.0000 0.92950  0.27610  0.19990  Biso   1.000  C
  C53      1.0000 0.80810  0.25330  0.13450  Biso   1.000  C
  H52      1.0000 0.75650  0.30040  0.11190  Biso   1.000  H
  H53      1.0000 0.72160  0.22070  0.14740  Biso   1.000  H
  C54      1.0000 0.98250  0.24130  0.04090  Biso   1.000  C
  H54      1.0000 0.00720  0.29420  0.03530  Biso   1.000  H
  C55      1.0000 0.03130  0.17820  0.00710  Biso   1.000  C
  H55      1.0000 0.09780  0.18100  0.97350  Biso   1.000  H
  C56      1.0000 0.88320  0.13110  0.07650  Biso   1.000  C
  H56      1.0000 0.82590  0.09690  0.10070  Biso   1.000  H
  N31      1.0000 0.96950  0.10940  0.02928  Biso   1.000  N
  N32      1.0000 0.88920  0.20970  0.08480  Biso   1.000  N
  N33      1.0000 0.09360  0.33680  0.28220  Biso   1.000  N
  N34      1.0000 0.08780  0.26090  0.30150  Biso   1.000  N
  N35      1.0000 0.98950  0.22480  0.25100  Biso   1.000  N
  O13      1.0000 0.91020  0.43160  0.35167  Biso   1.000  O
  O14      1.0000 0.13170  0.46420  0.43201  Biso   1.000  O
  C57      1.0000 0.94010  0.93410  0.12640  Biso   1.000  C
  C58      1.0000 0.82170  0.89450  0.16750  Biso   1.000  C
  H57      1.0000 0.73380  0.86840  0.13490  Biso   1.000  H
  H58      1.0000 0.77130  0.93430  0.19240  Biso   1.000  H
  C59      1.0000 0.00340  0.85030  0.28020  Biso   1.000  C
  H59      1.0000 0.02200  0.89760  0.30450  Biso   1.000  H
  C60      1.0000 0.07050  0.77610  0.30010  Biso   1.000  C
  C61      1.0000 0.19190  0.75330  0.36550  Biso   1.000  C
  H60      1.0000 0.24350  0.80040  0.38810  Biso   1.000  H
  H61      1.0000 0.27840  0.72070  0.35260  Biso   1.000  H
  C62      1.0000 0.01750  0.74130  0.45910  Biso   1.000  C
  H62      1.0000 0.99280  0.79420  0.46470  Biso   1.000  H
  C63      1.0000 0.96870  0.67820  0.49290  Biso   1.000  C
  H63      1.0000 0.90220  0.68100  0.52650  Biso   1.000  H
  C64      1.0000 0.11680  0.63110  0.42350  Biso   1.000  C
  H64      1.0000 0.17410  0.59690  0.39930  Biso   1.000  H
  N36      1.0000 0.03050  0.60940  0.47072  Biso   1.000  N
  N37      1.0000 0.11080  0.70970  0.41520  Biso   1.000  N
  N38      1.0000 0.90640  0.83680  0.21780  Biso   1.000  N
  N39      1.0000 0.91220  0.76090  0.19850  Biso   1.000  N
  N40      1.0000 0.01050  0.72480  0.24900  Biso   1.000  N
  O15      1.0000 0.08980  0.93160  0.14833  Biso   1.000  O
  O16      1.0000 0.86830  0.96420  0.06799  Biso   1.000  O
  Cu3      1.0000 0.00000  0.00000  0.00000  Biso   1.000  Cu
  Cu4      1.0000 0.00000  0.50000  0.50000  Biso   1.000  Cu
