data_image0
_cell_length_a       6.6762
_cell_length_b       7.9864
_cell_length_c       13.745
_cell_angle_alpha    78.535
_cell_angle_beta     84.941
_cell_angle_gamma    76.907

_symmetry_space_group_name_H-M    "P 1"
_symmetry_int_tables_number       1

loop_
  _symmetry_equiv_pos_as_xyz
  'x, y, z'

loop_
  _atom_site_label
  _atom_site_occupancy
  _atom_site_fract_x
  _atom_site_fract_y
  _atom_site_fract_z
  _atom_site_thermal_displace_type
  _atom_site_B_iso_or_equiv
  _atom_site_type_symbol
  Ca1      1.0000 0.35636  0.16033  0.59027  Biso   1.000  Ca
  O1       1.0000 0.61430  0.50550  0.13390  Biso   1.000  O
  O2       1.0000 0.58000  0.41570  0.29750  Biso   1.000  O
  O3       1.0000 0.40370  0.10530  0.41760  Biso   1.000  O
  O4       1.0000 0.18900  0.35440  0.43060  Biso   1.000  O
  O5       1.0000 0.30240  0.02110  0.76830  Biso   1.000  O
  O6       1.0000 0.55060  0.15620  0.73710  Biso   1.000  O
  O7       1.0000 0.48600  0.03390  0.88900  Biso   1.000  O
  N1       1.0000 0.30030  0.37470  0.10060  Biso   1.000  N
  N2       1.0000 0.08680  0.19890  0.25400  Biso   1.000  N
  N3       1.0000 0.44550  0.06990  0.80040  Biso   1.000  N
  C1       1.0000 0.24140  0.26960  0.27270  Biso   1.000  C
  C2       1.0000 0.35010  0.35730  0.19570  Biso   1.000  C
  C3       1.0000 0.14580  0.30760  0.08270  Biso   1.000  C
  H1       1.0000 0.10870  0.32020  0.01760  Biso   1.000  H
  C4       1.0000 0.03900  0.21930  0.15890  Biso   1.000  C
  H2       1.0000 0.93180  0.17310  0.14410  Biso   1.000  H
  C5       1.0000 0.53070  0.43280  0.21080  Biso   1.000  C
  C6       1.0000 0.28390  0.24450  0.38100  Biso   1.000  C
  Ca2      1.0000 0.64364  0.83967  0.40973  Biso   1.000  Ca
  O8       1.0000 0.38570  0.49450  0.86610  Biso   1.000  O
  O9       1.0000 0.42000  0.58430  0.70250  Biso   1.000  O
  O10      1.0000 0.59630  0.89470  0.58240  Biso   1.000  O
  O11      1.0000 0.81100  0.64560  0.56940  Biso   1.000  O
  O12      1.0000 0.69760  0.97890  0.23170  Biso   1.000  O
  O13      1.0000 0.44940  0.84380  0.26290  Biso   1.000  O
  O14      1.0000 0.51400  0.96610  0.11100  Biso   1.000  O
  N4       1.0000 0.69970  0.62530  0.89940  Biso   1.000  N
  N5       1.0000 0.91320  0.80110  0.74600  Biso   1.000  N
  N6       1.0000 0.55450  0.93010  0.19960  Biso   1.000  N
  C7       1.0000 0.75860  0.73040  0.72730  Biso   1.000  C
  C8       1.0000 0.64990  0.64270  0.80430  Biso   1.000  C
  C9       1.0000 0.85420  0.69240  0.91730  Biso   1.000  C
  H3       1.0000 0.89130  0.67980  0.98240  Biso   1.000  H
  C10      1.0000 0.96100  0.78070  0.84110  Biso   1.000  C
  H4       1.0000 0.06820  0.82690  0.85590  Biso   1.000  H
  C11      1.0000 0.46930  0.56720  0.78920  Biso   1.000  C
  C12      1.0000 0.71610  0.75550  0.61900  Biso   1.000  C
  Co1      1.0000 0.50000  0.50000  0.00000  Biso   1.000  Co
