data_image0
_cell_length_a       8.2953
_cell_length_b       10.6258
_cell_length_c       12.4574
_cell_angle_alpha    83.389
_cell_angle_beta     81.479
_cell_angle_gamma    84.419

_symmetry_space_group_name_H-M    "P 1"
_symmetry_int_tables_number       1

loop_
  _symmetry_equiv_pos_as_xyz
  'x, y, z'

loop_
  _atom_site_label
  _atom_site_occupancy
  _atom_site_fract_x
  _atom_site_fract_y
  _atom_site_fract_z
  _atom_site_thermal_displace_type
  _atom_site_B_iso_or_equiv
  _atom_site_type_symbol
  C1       1.0000 0.75360  0.40920  0.18390  Biso   1.000  C
  H1       1.0000 0.75050  0.34520  0.13940  Biso   1.000  H
  C2       1.0000 0.64730  0.40690  0.28060  Biso   1.000  C
  H2       1.0000 0.57450  0.34400  0.29860  Biso   1.000  H
  C3       1.0000 0.86260  0.58800  0.21590  Biso   1.000  C
  H3       1.0000 0.93370  0.65140  0.19370  Biso   1.000  H
  C4       1.0000 0.76440  0.59270  0.31600  Biso   1.000  C
  H4       1.0000 0.77340  0.65630  0.35970  Biso   1.000  H
  C5       1.0000 0.33850  0.43290  0.10420  Biso   1.000  C
  H5       1.0000 0.30340  0.41030  0.18120  Biso   1.000  H
  H6       1.0000 0.45560  0.44010  0.09370  Biso   1.000  H
  C6       1.0000 0.29880  0.33120  0.03820  Biso   1.000  C
  H7       1.0000 0.34360  0.34980  0.96220  Biso   1.000  H
  H8       1.0000 0.34810  0.24910  0.06480  Biso   1.000  H
  C7       1.0000 0.65020  0.50050  0.35160  Biso   1.000  C
  N1       1.0000 0.86140  0.49730  0.14910  Biso   1.000  N
  N2       1.0000 0.11490  0.32670  0.04810  Biso   1.000  N
  O1       1.0000 0.25430  0.55340  0.06820  Biso   1.000  O
  H9       1.0000 0.27500  0.60900  0.10340  Biso   1.000  H
  H10      1.0000 0.10400  0.30700  0.12760  Biso   1.000  H
  H11      1.0000 0.10400  0.25600  0.00600  Biso   1.000  H
  C8       1.0000 0.24640  0.59080  0.81610  Biso   1.000  C
  H12      1.0000 0.24950  0.65480  0.86060  Biso   1.000  H
  C9       1.0000 0.35270  0.59310  0.71940  Biso   1.000  C
  H13      1.0000 0.42550  0.65600  0.70140  Biso   1.000  H
  C10      1.0000 0.13740  0.41200  0.78410  Biso   1.000  C
  H14      1.0000 0.06630  0.34860  0.80630  Biso   1.000  H
  C11      1.0000 0.23560  0.40730  0.68400  Biso   1.000  C
  H15      1.0000 0.22660  0.34370  0.64030  Biso   1.000  H
  C12      1.0000 0.66150  0.56710  0.89580  Biso   1.000  C
  H16      1.0000 0.69660  0.58970  0.81880  Biso   1.000  H
  H17      1.0000 0.54440  0.55990  0.90630  Biso   1.000  H
  C13      1.0000 0.70120  0.66880  0.96180  Biso   1.000  C
  H18      1.0000 0.65640  0.65020  0.03780  Biso   1.000  H
  H19      1.0000 0.65190  0.75090  0.93520  Biso   1.000  H
  C14      1.0000 0.34980  0.49950  0.64840  Biso   1.000  C
  N3       1.0000 0.13860  0.50270  0.85090  Biso   1.000  N
  N4       1.0000 0.88510  0.67330  0.95190  Biso   1.000  N
  O2       1.0000 0.74570  0.44660  0.93180  Biso   1.000  O
  H20      1.0000 0.72500  0.39100  0.89660  Biso   1.000  H
  H21      1.0000 0.89600  0.69300  0.87240  Biso   1.000  H
  H22      1.0000 0.89600  0.74400  0.99400  Biso   1.000  H
  Cu1      1.0000 0.00000  0.50000  0.00000  Biso   1.000  Cu
  Hg1      1.0000 0.50000  0.50000  0.50000  Biso   1.000  Hg
