data_image0
_cell_length_a       17.9503
_cell_length_b       11.2846
_cell_length_c       9.2574
_cell_angle_alpha    90
_cell_angle_beta     119.709
_cell_angle_gamma    90

_symmetry_space_group_name_H-M    "P 1"
_symmetry_int_tables_number       1

loop_
  _symmetry_equiv_pos_as_xyz
  'x, y, z'

loop_
  _atom_site_label
  _atom_site_occupancy
  _atom_site_fract_x
  _atom_site_fract_y
  _atom_site_fract_z
  _atom_site_thermal_displace_type
  _atom_site_B_iso_or_equiv
  _atom_site_type_symbol
  N1       1.0000 0.98690  0.35870  0.32800  Biso   1.000  N
  C1       1.0000 0.91730  0.29020  0.26460  Biso   1.000  C
  H1       1.0000 0.87340  0.31130  0.28550  Biso   1.000  H
  C2       1.0000 0.90590  0.19190  0.17180  Biso   1.000  C
  H2       1.0000 0.85580  0.14760  0.13240  Biso   1.000  H
  C3       1.0000 0.96940  0.15740  0.13560  Biso   1.000  C
  C4       1.0000 0.04040  0.23160  0.19480  Biso   1.000  C
  H3       1.0000 0.08540  0.21250  0.17630  Biso   1.000  H
  C5       1.0000 0.04440  0.33540  0.28260  Biso   1.000  C
  H4       1.0000 0.08870  0.38900  0.30940  Biso   1.000  H
  C6       1.0000 0.95930  0.04460  0.04160  Biso   1.000  C
  N2       1.0000 0.00270  0.36310  0.34580  Biso   1.000  N
  C7       1.0000 0.94540  0.27600  0.29820  Biso   1.000  C
  H5       1.0000 0.90070  0.28370  0.32110  Biso   1.000  H
  C8       1.0000 0.94810  0.17470  0.21650  Biso   1.000  C
  H6       1.0000 0.90460  0.11850  0.18050  Biso   1.000  H
  C9       1.0000 0.01710  0.15840  0.18920  Biso   1.000  C
  C10      1.0000 0.07630  0.24590  0.24220  Biso   1.000  C
  H7       1.0000 0.12180  0.24070  0.22140  Biso   1.000  H
  C11      1.0000 0.07050  0.33920  0.32340  Biso   1.000  C
  H8       1.0000 0.11620  0.39210  0.36840  Biso   1.000  H
  C12      1.0000 0.03460  0.04490  0.12440  Biso   1.000  C
  N3       1.0000 0.01310  0.35870  0.67200  Biso   1.000  N
  C13      1.0000 0.08270  0.29020  0.73540  Biso   1.000  C
  H9       1.0000 0.12660  0.31130  0.71450  Biso   1.000  H
  C14      1.0000 0.09410  0.19190  0.82820  Biso   1.000  C
  H10      1.0000 0.14420  0.14760  0.86760  Biso   1.000  H
  C15      1.0000 0.03060  0.15740  0.86440  Biso   1.000  C
  C16      1.0000 0.95960  0.23160  0.80520  Biso   1.000  C
  H11      1.0000 0.91460  0.21250  0.82370  Biso   1.000  H
  C17      1.0000 0.95560  0.33540  0.71740  Biso   1.000  C
  H12      1.0000 0.91130  0.38900  0.69060  Biso   1.000  H
  C18      1.0000 0.04070  0.04460  0.95840  Biso   1.000  C
  N4       1.0000 0.99730  0.36310  0.65420  Biso   1.000  N
  C19      1.0000 0.05460  0.27600  0.70180  Biso   1.000  C
  H13      1.0000 0.09930  0.28370  0.67890  Biso   1.000  H
  C20      1.0000 0.05190  0.17470  0.78350  Biso   1.000  C
  H14      1.0000 0.09540  0.11850  0.81950  Biso   1.000  H
  C21      1.0000 0.98290  0.15840  0.81080  Biso   1.000  C
  C22      1.0000 0.92370  0.24590  0.75780  Biso   1.000  C
  H15      1.0000 0.87820  0.24070  0.77860  Biso   1.000  H
  C23      1.0000 0.92950  0.33920  0.67660  Biso   1.000  C
  H16      1.0000 0.88380  0.39210  0.63160  Biso   1.000  H
  C24      1.0000 0.96540  0.04490  0.87560  Biso   1.000  C
  N5       1.0000 0.01310  0.64130  0.67200  Biso   1.000  N
  C25      1.0000 0.08270  0.70980  0.73540  Biso   1.000  C
  H17      1.0000 0.12660  0.68870  0.71450  Biso   1.000  H
  C26      1.0000 0.09410  0.80810  0.82820  Biso   1.000  C
  H18      1.0000 0.14420  0.85240  0.86760  Biso   1.000  H
  C27      1.0000 0.03060  0.84260  0.86440  Biso   1.000  C
  C28      1.0000 0.95960  0.76840  0.80520  Biso   1.000  C
  H19      1.0000 0.91460  0.78750  0.82370  Biso   1.000  H
  C29      1.0000 0.95560  0.66460  0.71740  Biso   1.000  C
  H20      1.0000 0.91130  0.61100  0.69060  Biso   1.000  H
  C30      1.0000 0.04070  0.95540  0.95840  Biso   1.000  C
  N6       1.0000 0.99730  0.63690  0.65420  Biso   1.000  N
  C31      1.0000 0.05460  0.72400  0.70180  Biso   1.000  C
  H21      1.0000 0.09930  0.71630  0.67890  Biso   1.000  H
  C32      1.0000 0.05190  0.82530  0.78350  Biso   1.000  C
  H22      1.0000 0.09540  0.88150  0.81950  Biso   1.000  H
  C33      1.0000 0.98290  0.84160  0.81080  Biso   1.000  C
  C34      1.0000 0.92370  0.75410  0.75780  Biso   1.000  C
  H23      1.0000 0.87820  0.75930  0.77860  Biso   1.000  H
  C35      1.0000 0.92950  0.66080  0.67660  Biso   1.000  C
  H24      1.0000 0.88380  0.60790  0.63160  Biso   1.000  H
  C36      1.0000 0.96540  0.95510  0.87560  Biso   1.000  C
  N7       1.0000 0.98690  0.64130  0.32800  Biso   1.000  N
  C37      1.0000 0.91730  0.70980  0.26460  Biso   1.000  C
  H25      1.0000 0.87340  0.68870  0.28550  Biso   1.000  H
  C38      1.0000 0.90590  0.80810  0.17180  Biso   1.000  C
  H26      1.0000 0.85580  0.85240  0.13240  Biso   1.000  H
  C39      1.0000 0.96940  0.84260  0.13560  Biso   1.000  C
  C40      1.0000 0.04040  0.76840  0.19480  Biso   1.000  C
  H27      1.0000 0.08540  0.78750  0.17630  Biso   1.000  H
  C41      1.0000 0.04440  0.66460  0.28260  Biso   1.000  C
  H28      1.0000 0.08870  0.61100  0.30940  Biso   1.000  H
  C42      1.0000 0.95930  0.95540  0.04160  Biso   1.000  C
  N8       1.0000 0.00270  0.63690  0.34580  Biso   1.000  N
  C43      1.0000 0.94540  0.72400  0.29820  Biso   1.000  C
  H29      1.0000 0.90070  0.71630  0.32110  Biso   1.000  H
  C44      1.0000 0.94810  0.82530  0.21650  Biso   1.000  C
  H30      1.0000 0.90460  0.88150  0.18050  Biso   1.000  H
  C45      1.0000 0.01710  0.84160  0.18920  Biso   1.000  C
  C46      1.0000 0.07630  0.75410  0.24220  Biso   1.000  C
  H31      1.0000 0.12180  0.75930  0.22140  Biso   1.000  H
  C47      1.0000 0.07050  0.66080  0.32340  Biso   1.000  C
  H32      1.0000 0.11620  0.60790  0.36840  Biso   1.000  H
  C48      1.0000 0.03460  0.95510  0.12440  Biso   1.000  C
  Zn1      1.0000 0.00000  0.50000  0.50000  Biso   1.000  Zn
  N9       1.0000 0.48690  0.85870  0.32800  Biso   1.000  N
  C49      1.0000 0.41730  0.79020  0.26460  Biso   1.000  C
  H33      1.0000 0.37340  0.81130  0.28550  Biso   1.000  H
  C50      1.0000 0.40590  0.69190  0.17180  Biso   1.000  C
  H34      1.0000 0.35580  0.64760  0.13240  Biso   1.000  H
  C51      1.0000 0.46940  0.65740  0.13560  Biso   1.000  C
  C52      1.0000 0.54040  0.73160  0.19480  Biso   1.000  C
  H35      1.0000 0.58540  0.71250  0.17630  Biso   1.000  H
  C53      1.0000 0.54440  0.83540  0.28260  Biso   1.000  C
  H36      1.0000 0.58870  0.88900  0.30940  Biso   1.000  H
  C54      1.0000 0.45930  0.54460  0.04160  Biso   1.000  C
  N10      1.0000 0.50270  0.86310  0.34580  Biso   1.000  N
  C55      1.0000 0.44540  0.77600  0.29820  Biso   1.000  C
  H37      1.0000 0.40070  0.78370  0.32110  Biso   1.000  H
  C56      1.0000 0.44810  0.67470  0.21650  Biso   1.000  C
  H38      1.0000 0.40460  0.61850  0.18050  Biso   1.000  H
  C57      1.0000 0.51710  0.65840  0.18920  Biso   1.000  C
  C58      1.0000 0.57630  0.74590  0.24220  Biso   1.000  C
  H39      1.0000 0.62180  0.74070  0.22140  Biso   1.000  H
  C59      1.0000 0.57050  0.83920  0.32340  Biso   1.000  C
  H40      1.0000 0.61620  0.89210  0.36840  Biso   1.000  H
  C60      1.0000 0.53460  0.54490  0.12440  Biso   1.000  C
  N11      1.0000 0.51310  0.85870  0.67200  Biso   1.000  N
  C61      1.0000 0.58270  0.79020  0.73540  Biso   1.000  C
  H41      1.0000 0.62660  0.81130  0.71450  Biso   1.000  H
  C62      1.0000 0.59410  0.69190  0.82820  Biso   1.000  C
  H42      1.0000 0.64420  0.64760  0.86760  Biso   1.000  H
  C63      1.0000 0.53060  0.65740  0.86440  Biso   1.000  C
  C64      1.0000 0.45960  0.73160  0.80520  Biso   1.000  C
  H43      1.0000 0.41460  0.71250  0.82370  Biso   1.000  H
  C65      1.0000 0.45560  0.83540  0.71740  Biso   1.000  C
  H44      1.0000 0.41130  0.88900  0.69060  Biso   1.000  H
  C66      1.0000 0.54070  0.54460  0.95840  Biso   1.000  C
  N12      1.0000 0.49730  0.86310  0.65420  Biso   1.000  N
  C67      1.0000 0.55460  0.77600  0.70180  Biso   1.000  C
  H45      1.0000 0.59930  0.78370  0.67890  Biso   1.000  H
  C68      1.0000 0.55190  0.67470  0.78350  Biso   1.000  C
  H46      1.0000 0.59540  0.61850  0.81950  Biso   1.000  H
  C69      1.0000 0.48290  0.65840  0.81080  Biso   1.000  C
  C70      1.0000 0.42370  0.74590  0.75780  Biso   1.000  C
  H47      1.0000 0.37820  0.74070  0.77860  Biso   1.000  H
  C71      1.0000 0.42950  0.83920  0.67660  Biso   1.000  C
  H48      1.0000 0.38380  0.89210  0.63160  Biso   1.000  H
  C72      1.0000 0.46540  0.54490  0.87560  Biso   1.000  C
  N13      1.0000 0.51310  0.14130  0.67200  Biso   1.000  N
  C73      1.0000 0.58270  0.20980  0.73540  Biso   1.000  C
  H49      1.0000 0.62660  0.18870  0.71450  Biso   1.000  H
  C74      1.0000 0.59410  0.30810  0.82820  Biso   1.000  C
  H50      1.0000 0.64420  0.35240  0.86760  Biso   1.000  H
  C75      1.0000 0.53060  0.34260  0.86440  Biso   1.000  C
  C76      1.0000 0.45960  0.26840  0.80520  Biso   1.000  C
  H51      1.0000 0.41460  0.28750  0.82370  Biso   1.000  H
  C77      1.0000 0.45560  0.16460  0.71740  Biso   1.000  C
  H52      1.0000 0.41130  0.11100  0.69060  Biso   1.000  H
  C78      1.0000 0.54070  0.45540  0.95840  Biso   1.000  C
  N14      1.0000 0.49730  0.13690  0.65420  Biso   1.000  N
  C79      1.0000 0.55460  0.22400  0.70180  Biso   1.000  C
  H53      1.0000 0.59930  0.21630  0.67890  Biso   1.000  H
  C80      1.0000 0.55190  0.32530  0.78350  Biso   1.000  C
  H54      1.0000 0.59540  0.38150  0.81950  Biso   1.000  H
  C81      1.0000 0.48290  0.34160  0.81080  Biso   1.000  C
  C82      1.0000 0.42370  0.25410  0.75780  Biso   1.000  C
  H55      1.0000 0.37820  0.25930  0.77860  Biso   1.000  H
  C83      1.0000 0.42950  0.16080  0.67660  Biso   1.000  C
  H56      1.0000 0.38380  0.10790  0.63160  Biso   1.000  H
  C84      1.0000 0.46540  0.45510  0.87560  Biso   1.000  C
  N15      1.0000 0.48690  0.14130  0.32800  Biso   1.000  N
  C85      1.0000 0.41730  0.20980  0.26460  Biso   1.000  C
  H57      1.0000 0.37340  0.18870  0.28550  Biso   1.000  H
  C86      1.0000 0.40590  0.30810  0.17180  Biso   1.000  C
  H58      1.0000 0.35580  0.35240  0.13240  Biso   1.000  H
  C87      1.0000 0.46940  0.34260  0.13560  Biso   1.000  C
  C88      1.0000 0.54040  0.26840  0.19480  Biso   1.000  C
  H59      1.0000 0.58540  0.28750  0.17630  Biso   1.000  H
  C89      1.0000 0.54440  0.16460  0.28260  Biso   1.000  C
  H60      1.0000 0.58870  0.11100  0.30940  Biso   1.000  H
  C90      1.0000 0.45930  0.45540  0.04160  Biso   1.000  C
  N16      1.0000 0.50270  0.13690  0.34580  Biso   1.000  N
  C91      1.0000 0.44540  0.22400  0.29820  Biso   1.000  C
  H61      1.0000 0.40070  0.21630  0.32110  Biso   1.000  H
  C92      1.0000 0.44810  0.32530  0.21650  Biso   1.000  C
  H62      1.0000 0.40460  0.38150  0.18050  Biso   1.000  H
  C93      1.0000 0.51710  0.34160  0.18920  Biso   1.000  C
  C94      1.0000 0.57630  0.25410  0.24220  Biso   1.000  C
  H63      1.0000 0.62180  0.25930  0.22140  Biso   1.000  H
  C95      1.0000 0.57050  0.16080  0.32340  Biso   1.000  C
  H64      1.0000 0.61620  0.10790  0.36840  Biso   1.000  H
  C96      1.0000 0.53460  0.45510  0.12440  Biso   1.000  C
  Zn2      1.0000 0.50000  0.00000  0.50000  Biso   1.000  Zn
