data_image0
_cell_length_a       10.214
_cell_length_b       14.064
_cell_length_c       14.282
_cell_angle_alpha    75.127
_cell_angle_beta     87.917
_cell_angle_gamma    79.52

_symmetry_space_group_name_H-M    "P 1"
_symmetry_int_tables_number       1

loop_
  _symmetry_equiv_pos_as_xyz
  'x, y, z'

loop_
  _atom_site_label
  _atom_site_occupancy
  _atom_site_fract_x
  _atom_site_fract_y
  _atom_site_fract_z
  _atom_site_thermal_displace_type
  _atom_site_B_iso_or_equiv
  _atom_site_type_symbol
  Rh1      1.0000 0.51211  0.04873  0.55655  Biso   1.000  Rh
  Rh2      1.0000 0.51124  0.44435  0.94702  Biso   1.000  Rh
  F1       1.0000 0.10850  0.25330  0.43700  Biso   1.000  F
  F2       1.0000 0.08310  0.16570  0.34320  Biso   1.000  F
  F3       1.0000 0.04370  0.11370  0.49410  Biso   1.000  F
  F4       1.0000 0.69540  0.26820  0.30720  Biso   1.000  F
  F5       1.0000 0.81460  0.13750  0.28950  Biso   1.000  F
  F6       1.0000 0.64550  0.19860  0.20360  Biso   1.000  F
  F7       1.0000 0.08950  0.58940  0.82290  Biso   1.000  F
  F8       1.0000 0.03570  0.59670  0.96520  Biso   1.000  F
  F9       1.0000 0.09540  0.71740  0.87200  Biso   1.000  F
  F10      1.0000 0.34870  0.20710  0.19150  Biso   1.000  F
  F11      1.0000 0.19710  0.33370  0.19940  Biso   1.000  F
  F12      1.0000 0.36450  0.29010  0.29420  Biso   1.000  F
  O1       1.0000 0.32830  0.12900  0.51530  Biso   1.000  O
  O2       1.0000 0.30330  0.03780  0.40690  Biso   1.000  O
  O3       1.0000 0.59990  0.14150  0.44800  Biso   1.000  O
  O4       1.0000 0.57480  0.04950  0.34300  Biso   1.000  O
  O5       1.0000 0.32500  0.50950  0.89730  Biso   1.000  O
  O6       1.0000 0.30470  0.61610  0.99310  Biso   1.000  O
  O7       1.0000 0.42850  0.34620  0.05250  Biso   1.000  O
  O8       1.0000 0.40780  0.45210  0.15160  Biso   1.000  O
  N1       1.0000 0.52810  0.13460  0.66660  Biso   1.000  N
  N2       1.0000 0.52250  0.33380  0.85610  Biso   1.000  N
  C1       1.0000 0.26590  0.10430  0.45260  Biso   1.000  C
  C2       1.0000 0.11870  0.16130  0.43220  Biso   1.000  C
  C3       1.0000 0.61170  0.11820  0.36830  Biso   1.000  C
  C4       1.0000 0.69360  0.18250  0.28980  Biso   1.000  C
  C5       1.0000 0.52480  0.14890  0.73700  Biso   1.000  C
  C6       1.0000 0.52160  0.15650  0.83910  Biso   1.000  C
  C7       1.0000 0.52460  0.26360  0.84430  Biso   1.000  C
  C8       1.0000 0.50900  0.08120  0.91710  Biso   1.000  C
  C9       1.0000 0.50210  0.09850  0.01380  Biso   1.000  C
  C10      1.0000 0.49080  0.01990  0.09380  Biso   1.000  C
  C11      1.0000 0.26060  0.57940  0.93280  Biso   1.000  C
  C12      1.0000 0.12180  0.62220  0.89520  Biso   1.000  C
  C13      1.0000 0.39520  0.37230  0.13080  Biso   1.000  C
  C14      1.0000 0.32500  0.30000  0.20620  Biso   1.000  C
  Rh3      1.0000 0.48789  0.95127  0.44345  Biso   1.000  Rh
  Rh4      1.0000 0.48876  0.55565  0.05298  Biso   1.000  Rh
  F13      1.0000 0.89150  0.74670  0.56300  Biso   1.000  F
  F14      1.0000 0.91690  0.83430  0.65680  Biso   1.000  F
  F15      1.0000 0.95630  0.88630  0.50590  Biso   1.000  F
  F16      1.0000 0.30460  0.73180  0.69280  Biso   1.000  F
  F17      1.0000 0.18540  0.86250  0.71050  Biso   1.000  F
  F18      1.0000 0.35450  0.80140  0.79640  Biso   1.000  F
  F19      1.0000 0.91050  0.41060  0.17710  Biso   1.000  F
  F20      1.0000 0.96430  0.40330  0.03480  Biso   1.000  F
  F21      1.0000 0.90460  0.28260  0.12800  Biso   1.000  F
  F22      1.0000 0.65130  0.79290  0.80850  Biso   1.000  F
  F23      1.0000 0.80290  0.66630  0.80060  Biso   1.000  F
  F24      1.0000 0.63550  0.70990  0.70580  Biso   1.000  F
  O9       1.0000 0.67170  0.87100  0.48470  Biso   1.000  O
  O10      1.0000 0.69670  0.96220  0.59310  Biso   1.000  O
  O11      1.0000 0.40010  0.85850  0.55200  Biso   1.000  O
  O12      1.0000 0.42520  0.95050  0.65700  Biso   1.000  O
  O13      1.0000 0.67500  0.49050  0.10270  Biso   1.000  O
  O14      1.0000 0.69530  0.38390  0.00690  Biso   1.000  O
  O15      1.0000 0.57150  0.65380  0.94750  Biso   1.000  O
  O16      1.0000 0.59220  0.54790  0.84840  Biso   1.000  O
  N3       1.0000 0.47190  0.86540  0.33340  Biso   1.000  N
  N4       1.0000 0.47750  0.66620  0.14390  Biso   1.000  N
  C15      1.0000 0.73410  0.89570  0.54740  Biso   1.000  C
  C16      1.0000 0.88130  0.83870  0.56780  Biso   1.000  C
  C17      1.0000 0.38830  0.88180  0.63170  Biso   1.000  C
  C18      1.0000 0.30640  0.81750  0.71020  Biso   1.000  C
  C19      1.0000 0.47520  0.85110  0.26300  Biso   1.000  C
  C20      1.0000 0.47840  0.84350  0.16090  Biso   1.000  C
  C21      1.0000 0.47540  0.73640  0.15570  Biso   1.000  C
  C22      1.0000 0.49100  0.91880  0.08290  Biso   1.000  C
  C23      1.0000 0.49790  0.90150  0.98620  Biso   1.000  C
  C24      1.0000 0.50920  0.98010  0.90620  Biso   1.000  C
  C25      1.0000 0.73940  0.42060  0.06720  Biso   1.000  C
  C26      1.0000 0.87820  0.37780  0.10480  Biso   1.000  C
  C27      1.0000 0.60480  0.62770  0.86920  Biso   1.000  C
  C28      1.0000 0.67500  0.70000  0.79380  Biso   1.000  C
