data_image0
_cell_length_a       24.4797
_cell_length_b       24.5938
_cell_length_c       25.2374
_cell_angle_alpha    118.436
_cell_angle_beta     111.969
_cell_angle_gamma    94.229

_symmetry_space_group_name_H-M    "P 1"
_symmetry_int_tables_number       1

loop_
  _symmetry_equiv_pos_as_xyz
  'x, y, z'

loop_
  _atom_site_label
  _atom_site_occupancy
  _atom_site_fract_x
  _atom_site_fract_y
  _atom_site_fract_z
  _atom_site_thermal_displace_type
  _atom_site_B_iso_or_equiv
  _atom_site_type_symbol
  C1       1.0000 0.45740  0.04550  0.82230  Biso   1.000  C
  C2       1.0000 0.38950  0.01350  0.77690  Biso   1.000  C
  C3       1.0000 0.36370  0.94720  0.74900  Biso   1.000  C
  H1       1.0000 0.38880  0.92320  0.76080  Biso   1.000  H
  C4       1.0000 0.30020  0.91720  0.70330  Biso   1.000  C
  H2       1.0000 0.28260  0.87190  0.68220  Biso   1.000  H
  C5       1.0000 0.26290  0.95320  0.68860  Biso   1.000  C
  H3       1.0000 0.21980  0.93260  0.65850  Biso   1.000  H
  C6       1.0000 0.28850  0.01900  0.71790  Biso   1.000  C
  C7       1.0000 0.35160  0.04940  0.76230  Biso   1.000  C
  H4       1.0000 0.36890  0.09460  0.78270  Biso   1.000  H
  C8       1.0000 0.24860  0.05710  0.69890  Biso   1.000  C
  C9       1.0000 0.68550  0.15730  0.98560  Biso   1.000  C
  C10      1.0000 0.75050  0.19080  0.04240  Biso   1.000  C
  C11      1.0000 0.78730  0.15480  0.05890  Biso   1.000  C
  H5       1.0000 0.77240  0.10870  0.03240  Biso   1.000  H
  C12      1.0000 0.84610  0.18780  0.11500  Biso   1.000  C
  H6       1.0000 0.87180  0.16400  0.12630  Biso   1.000  H
  C13      1.0000 0.86720  0.25520  0.15430  Biso   1.000  C
  H7       1.0000 0.90740  0.27710  0.19240  Biso   1.000  H
  C14      1.0000 0.83080  0.29060  0.13890  Biso   1.000  C
  C15      1.0000 0.77250  0.25870  0.08330  Biso   1.000  C
  H8       1.0000 0.74710  0.28310  0.07270  Biso   1.000  H
  C16      1.0000 0.85280  0.36350  0.18260  Biso   1.000  C
  C17      1.0000 0.41540  0.91550  0.19930  Biso   1.000  C
  C18      1.0000 0.41760  0.93020  0.26530  Biso   1.000  C
  C19      1.0000 0.40950  0.98820  0.30700  Biso   1.000  C
  H9       1.0000 0.39980  0.01690  0.29240  Biso   1.000  H
  C20      1.0000 0.41580  0.00370  0.37000  Biso   1.000  C
  H10      1.0000 0.41050  0.04320  0.39850  Biso   1.000  H
  C21      1.0000 0.42980  0.96190  0.39120  Biso   1.000  C
  H11      1.0000 0.43420  0.97280  0.43440  Biso   1.000  H
  C22      1.0000 0.43760  0.90350  0.34930  Biso   1.000  C
  C23      1.0000 0.43050  0.88799  0.28600  Biso   1.000  C
  H12      1.0000 0.43460  0.84790  0.25680  Biso   1.000  H
  C24      1.0000 0.45390  0.85780  0.37120  Biso   1.000  C
  C25      1.0000 0.55570  0.12080  0.00070  Biso   1.000  C
  C26      1.0000 0.54640  0.13040  0.05970  Biso   1.000  C
  C27      1.0000 0.54500  0.08180  0.07220  Biso   1.000  C
  H13      1.0000 0.54890  0.04180  0.04260  Biso   1.000  H
  C28      1.0000 0.53820  0.09030  0.12680  Biso   1.000  C
  H14      1.0000 0.53620  0.05590  0.13420  Biso   1.000  H
  C29      1.0000 0.53420  0.14930  0.17110  Biso   1.000  C
  H15      1.0000 0.53030  0.15560  0.20960  Biso   1.000  H
  C30      1.0000 0.53570  0.19920  0.15980  Biso   1.000  C
  C31      1.0000 0.54060  0.18920  0.10280  Biso   1.000  C
  H16      1.0000 0.53990  0.22230  0.09340  Biso   1.000  H
  C32      1.0000 0.53320  0.26320  0.20890  Biso   1.000  C
  C33      1.0000 0.88200  0.81990  0.37550  Biso   1.000  C
  C34      1.0000 0.92090  0.78260  0.39770  Biso   1.000  C
  C35      1.0000 0.97790  0.81450  0.45580  Biso   1.000  C
  H17      1.0000 0.99230  0.86070  0.48310  Biso   1.000  H
  C36      1.0000 0.01340  0.78030  0.47400  Biso   1.000  C
  H18      1.0000 0.05190  0.80260  0.51450  Biso   1.000  H
  C37      1.0000 0.99340  0.71260  0.43330  Biso   1.000  C
  H19      1.0000 0.01880  0.68870  0.44510  Biso   1.000  H
  C38      1.0000 0.93620  0.68020  0.37540  Biso   1.000  C
  C39      1.0000 0.89980  0.71440  0.35720  Biso   1.000  C
  H20      1.0000 0.86070  0.69210  0.31750  Biso   1.000  H
  C40      1.0000 0.91500  0.60670  0.33030  Biso   1.000  C
  C41      1.0000 0.77290  0.89990  0.41780  Biso   1.000  C
  C42      1.0000 0.74510  0.91210  0.46550  Biso   1.000  C
  C43      1.0000 0.77660  0.96510  0.53290  Biso   1.000  C
  H21      1.0000 0.81590  0.99290  0.54920  Biso   1.000  H
  C44      1.0000 0.75060  0.97710  0.57600  Biso   1.000  C
  H22      1.0000 0.77230  0.01270  0.62210  Biso   1.000  H
  C45      1.0000 0.69250  0.93690  0.55120  Biso   1.000  C
  H23      1.0000 0.67470  0.94510  0.58080  Biso   1.000  H
  C46      1.0000 0.66020  0.88470  0.48390  Biso   1.000  C
  C47      1.0000 0.68740  0.87140  0.44130  Biso   1.000  C
  H24      1.0000 0.66650  0.83460  0.39580  Biso   1.000  H
  C48      1.0000 0.59650  0.84320  0.45630  Biso   1.000  C
  C49      1.0000 0.13560  0.13170  0.73920  Biso   1.000  C
  C50      1.0000 0.10830  0.14260  0.78650  Biso   1.000  C
  C51      1.0000 0.06020  0.09380  0.76940  Biso   1.000  C
  H25      1.0000 0.04540  0.05250  0.72820  Biso   1.000  H
  C52      1.0000 0.03380  0.10430  0.81130  Biso   1.000  C
  H26      1.0000 0.00160  0.07020  0.79970  Biso   1.000  H
  C53      1.0000 0.05480  0.16670  0.87240  Biso   1.000  C
  H27      1.0000 0.03610  0.17500  0.90130  Biso   1.000  H
  C54      1.0000 0.10290  0.21500  0.88900  Biso   1.000  C
  C55      1.0000 0.13080  0.20280  0.84680  Biso   1.000  C
  H28      1.0000 0.16480  0.23560  0.85940  Biso   1.000  H
  C56      1.0000 0.12450  0.28180  0.95180  Biso   1.000  C
  C57      1.0000 0.83940  0.47040  0.32570  Biso   1.000  C
  C58      1.0000 0.81250  0.45850  0.36470  Biso   1.000  C
  C59      1.0000 0.84920  0.46080  0.42320  Biso   1.000  C
  H29      1.0000 0.89280  0.47220  0.43990  Biso   1.000  H
  C60      1.0000 0.82410  0.44710  0.45810  Biso   1.000  C
  H30      1.0000 0.85010  0.44870  0.49810  Biso   1.000  H
  C61      1.0000 0.76020  0.43100  0.43360  Biso   1.000  C
  H31      1.0000 0.74220  0.42140  0.45680  Biso   1.000  H
  C62      1.0000 0.72270  0.42890  0.37500  Biso   1.000  C
  C63      1.0000 0.74870  0.44360  0.34120  Biso   1.000  C
  H32      1.0000 0.72300  0.44340  0.30200  Biso   1.000  H
  C64      1.0000 0.65340  0.40840  0.34660  Biso   1.000  C
  C65      1.0000 0.92090  0.49980  0.18160  Biso   1.000  C
  C66      1.0000 0.94580  0.51350  0.14120  Biso   1.000  C
  C67      1.0000 0.00500  0.51190  0.15050  Biso   1.000  C
  H33      1.0000 0.02890  0.49990  0.18020  Biso   1.000  H
  C68      1.0000 0.02960  0.52790  0.11630  Biso   1.000  C
  H34      1.0000 0.07000  0.52620  0.12200  Biso   1.000  H
  C69      1.0000 0.99440  0.54640  0.07340  Biso   1.000  C
  H35      1.0000 0.01140  0.55920  0.05130  Biso   1.000  H
  C70      1.0000 0.93410  0.54630  0.06280  Biso   1.000  C
  C71      1.0000 0.91010  0.52940  0.09680  Biso   1.000  C
  H36      1.0000 0.86900  0.52870  0.08940  Biso   1.000  H
  C72      1.0000 0.89770  0.56740  0.01760  Biso   1.000  C
  C73      1.0000 0.54140  0.48220  0.38680  Biso   1.000  C
  C74      1.0000 0.54010  0.54850  0.43570  Biso   1.000  C
  C75      1.0000 0.54480  0.56360  0.49810  Biso   1.000  C
  H37      1.0000 0.55050  0.53320  0.51120  Biso   1.000  H
  C76      1.0000 0.54090  0.62350  0.54130  Biso   1.000  C
  H38      1.0000 0.54400  0.63390  0.58400  Biso   1.000  H
  C77      1.0000 0.53250  0.66760  0.52260  Biso   1.000  C
  H39      1.0000 0.53090  0.70880  0.55270  Biso   1.000  H
  C78      1.0000 0.52647  0.65190  0.45940  Biso   1.000  C
  C79      1.0000 0.53210  0.59270  0.41660  Biso   1.000  C
  H40      1.0000 0.53050  0.58290  0.37470  Biso   1.000  H
  C80      1.0000 0.51381  0.69890  0.43750  Biso   1.000  C
  C81      1.0000 0.42290  0.33920  0.26000  Biso   1.000  C
  C82      1.0000 0.35510  0.32700  0.23900  Biso   1.000  C
  C83      1.0000 0.32790  0.30070  0.26540  Biso   1.000  C
  H41      1.0000 0.35170  0.28770  0.29420  Biso   1.000  H
  C84      1.0000 0.26540  0.29410  0.24860  Biso   1.000  C
  H42      1.0000 0.24690  0.27790  0.26740  Biso   1.000  H
  C85      1.0000 0.23070  0.31080  0.20510  Biso   1.000  C
  H43      1.0000 0.18800  0.30500  0.19320  Biso   1.000  H
  C86      1.0000 0.25630  0.33580  0.17850  Biso   1.000  C
  C87      1.0000 0.31900  0.34470  0.19640  Biso   1.000  C
  H44      1.0000 0.33720  0.36310  0.17900  Biso   1.000  H
  C88      1.0000 0.21930  0.35660  0.13270  Biso   1.000  C
  C89      1.0000 0.19870  0.50680  0.16270  Biso   1.000  C
  C90      1.0000 0.22310  0.57370  0.22600  Biso   1.000  C
  C91      1.0000 0.18740  0.59560  0.25890  Biso   1.000  C
  H45      1.0000 0.14730  0.56850  0.24140  Biso   1.000  H
  C92      1.0000 0.21080  0.65760  0.31770  Biso   1.000  C
  H46      1.0000 0.18560  0.67350  0.33890  Biso   1.000  H
  C93      1.0000 0.27010  0.69620  0.34550  Biso   1.000  C
  H47      1.0000 0.28600  0.73810  0.38630  Biso   1.000  H
  C94      1.0000 0.30700  0.67350  0.31330  Biso   1.000  C
  C95      1.0000 0.28220  0.61240  0.25300  Biso   1.000  C
  H48      1.0000 0.30630  0.59710  0.23010  Biso   1.000  H
  C96      1.0000 0.37230  0.71290  0.34440  Biso   1.000  C
  Cu1      1.0000 0.86286  0.93644  0.38630  Biso   1.000  Cu
  Cu2      1.0000 0.77208  0.82753  0.29008  Biso   1.000  Cu
  Cu3      1.0000 0.48325  0.81649  0.46025  Biso   1.000  Cu
  Cu4      1.0000 0.48660  0.73892  0.34583  Biso   1.000  Cu
  Cu5      1.0000 0.11265  0.37996  0.06460  Biso   1.000  Cu
  Cu6      1.0000 0.20963  0.40909  0.04999  Biso   1.000  Cu
  Cu7      1.0000 0.54399  0.35410  0.34253  Biso   1.000  Cu
  Cu8      1.0000 0.53151  0.39094  0.25716  Biso   1.000  Cu
  Cu9      1.0000 0.93738  0.48505  0.29244  Biso   1.000  Cu
  Cu10     1.0000 0.82768  0.48521  0.21703  Biso   1.000  Cu
  Cu11     1.0000 0.58022  0.04578  0.88899  Biso   1.000  Cu
  Cu12     1.0000 0.56519  0.15946  0.91481  Biso   1.000  Cu
  O1       1.0000 0.49070  0.01009  0.82851  Biso   1.000  O
  O2       1.0000 0.47740  0.10731  0.85275  Biso   1.000  O
  O3       1.0000 0.66638  0.09599  0.95368  Biso   1.000  O
  O4       1.0000 0.65503  0.19242  0.97445  Biso   1.000  O
  O5       1.0000 0.40780  0.95781  0.18552  Biso   1.000  O
  O6       1.0000 0.42320  0.86232  0.16452  Biso   1.000  O
  O7       1.0000 0.56350  0.06753  0.96604  Biso   1.000  O
  O8       1.0000 0.55413  0.16608  0.99037  Biso   1.000  O
  O9       1.0000 0.19402  0.02536  0.65310  Biso   1.000  O
  O10      1.0000 0.27312  0.11704  0.73148  Biso   1.000  O
  O11      1.0000 0.90526  0.88038  0.40971  Biso   1.000  O
  O12      1.0000 0.82902  0.78736  0.32558  Biso   1.000  O
  O13      1.0000 0.82134  0.94160  0.44070  Biso   1.000  O
  O14      1.0000 0.74570  0.84778  0.36038  Biso   1.000  O
  O15      1.0000 0.10689  0.08221  0.68026  Biso   1.000  O
  O16      1.0000 0.18598  0.17269  0.76345  Biso   1.000  O
  O17      1.0000 0.95313  0.57859  0.34500  Biso   1.000  O
  O18      1.0000 0.85987  0.57993  0.28270  Biso   1.000  O
  O19      1.0000 0.90640  0.39010  0.23160  Biso   1.000  O
  O20      1.0000 0.81576  0.39106  0.16500  Biso   1.000  O
  O21      1.0000 0.89555  0.47650  0.34320  Biso   1.000  O
  O22      1.0000 0.80330  0.47440  0.27760  Biso   1.000  O
  O23      1.0000 0.95737  0.49320  0.22690  Biso   1.000  O
  O24      1.0000 0.86528  0.49660  0.16590  Biso   1.000  O
  O25      1.0000 0.54202  0.27357  0.26571  Biso   1.000  O
  O26      1.0000 0.52323  0.30244  0.19010  Biso   1.000  O
  O27      1.0000 0.54289  0.44184  0.40393  Biso   1.000  O
  O28      1.0000 0.54171  0.47448  0.33429  Biso   1.000  O
  O29      1.0000 0.63213  0.39141  0.37615  Biso   1.000  O
  O30      1.0000 0.62219  0.41115  0.29573  Biso   1.000  O
  O31      1.0000 0.45423  0.32553  0.30200  Biso   1.000  O
  O32      1.0000 0.44367  0.36304  0.23451  Biso   1.000  O
  O33      1.0000 0.16425  0.35250  0.12230  Biso   1.000  O
  O34      1.0000 0.24562  0.37550  0.10740  Biso   1.000  O
  O35      1.0000 0.92429  0.58850  0.99458  Biso   1.000  O
  O36      1.0000 0.84193  0.56190  0.00600  Biso   1.000  O
  O37      1.0000 0.14872  0.46953  0.14425  Biso   1.000  O
  O38      1.0000 0.23141  0.49354  0.13240  Biso   1.000  O
  O39      1.0000 0.09300  0.29340  0.98360  Biso   1.000  O
  O40      1.0000 0.17334  0.32067  0.96904  Biso   1.000  O
  O41      1.0000 0.50357  0.74811  0.47573  Biso   1.000  O
  O42      1.0000 0.51334  0.68473  0.38221  Biso   1.000  O
  O43      1.0000 0.46339  0.87618  0.43141  Biso   1.000  O
  O44      1.0000 0.45828  0.80609  0.33050  Biso   1.000  O
  O45      1.0000 0.57207  0.85838  0.49580  Biso   1.000  O
  O46      1.0000 0.57214  0.79579  0.39607  Biso   1.000  O
  O47      1.0000 0.39516  0.76381  0.40348  Biso   1.000  O
  O48      1.0000 0.40146  0.69175  0.31058  Biso   1.000  O
  O49      1.0000 0.56190  0.25900  0.95560  Biso   1.000  O
  O50      1.0000 0.53400  0.23980  0.91370  Biso   1.000  O
  O51      1.0000 0.37090  0.24590  0.89900  Biso   1.000  O
  O52      1.0000 0.74000  0.59360  0.03930  Biso   1.000  O
  O53      1.0000 0.59570  0.29570  0.02070  Biso   1.000  O
  N1       1.0000 0.72000  0.64370  0.11340  Biso   1.000  N
  N2       1.0000 0.72090  0.63420  0.13140  Biso   1.000  N
  N3       1.0000 0.71520  0.70200  0.12970  Biso   1.000  N
  O54      1.0000 0.71370  0.73070  0.20340  Biso   1.000  O
  O55      1.0000 0.70490  0.73450  0.20820  Biso   1.000  O
  C97      1.0000 0.74090  0.69240  0.18000  Biso   1.000  C
  C98      1.0000 0.67100  0.64100  0.06240  Biso   1.000  C
  C99      1.0000 0.66420  0.70600  0.07900  Biso   1.000  C
  C100     1.0000 0.75820  0.59610  0.14090  Biso   1.000  C
  C101     1.0000 0.74310  0.58690  0.08860  Biso   1.000  C
  N4       1.0000 0.63570  0.39590  0.10460  Biso   1.000  N
  O56      1.0000 0.73190  0.47140  0.15340  Biso   1.000  O
  C102     1.0000 0.69260  0.41830  0.14050  Biso   1.000  C
  C103     1.0000 0.59080  0.33590  0.07560  Biso   1.000  C
  C104     1.0000 0.60340  0.44000  0.08600  Biso   1.000  C
  C105     1.0000 0.60940  0.37210  0.13410  Biso   1.000  C
  N5       1.0000 0.34440  0.47040  0.13080  Biso   1.000  N
  O57      1.0000 0.27960  0.42700  0.02210  Biso   1.000  O
  O58      1.0000 0.29880  0.43920  0.06080  Biso   1.000  O
  C106     1.0000 0.32600  0.46840  0.07340  Biso   1.000  C
  C107     1.0000 0.39600  0.52560  0.19390  Biso   1.000  C
  C108     1.0000 0.33400  0.40800  0.12500  Biso   1.000  C
  C109     1.0000 0.39820  0.50570  0.15620  Biso   1.000  C
  N6       1.0000 0.44470  0.49640  0.18210  Biso   1.000  N
  O59      1.0000 0.50200  0.43060  0.19390  Biso   1.000  O
  O60      1.0000 0.52920  0.43100  0.19760  Biso   1.000  O
  C110     1.0000 0.46760  0.46300  0.20580  Biso   1.000  C
  C111     1.0000 0.44360  0.49500  0.12020  Biso   1.000  C
  C112     1.0000 0.43680  0.53730  0.22580  Biso   1.000  C
  C113     1.0000 0.54260  0.95450  0.17770  Biso   1.000  C
  C114     1.0000 0.61050  0.98650  0.22310  Biso   1.000  C
  C115     1.0000 0.63630  0.05280  0.25100  Biso   1.000  C
  H49      1.0000 0.61120  0.07680  0.23920  Biso   1.000  H
  C116     1.0000 0.69980  0.08280  0.29670  Biso   1.000  C
  H50      1.0000 0.71740  0.12810  0.31780  Biso   1.000  H
  C117     1.0000 0.73710  0.04680  0.31140  Biso   1.000  C
  H51      1.0000 0.78020  0.06740  0.34150  Biso   1.000  H
  C118     1.0000 0.71150  0.98100  0.28210  Biso   1.000  C
  C119     1.0000 0.64840  0.95060  0.23770  Biso   1.000  C
  H52      1.0000 0.63110  0.90540  0.21730  Biso   1.000  H
  C120     1.0000 0.75140  0.94290  0.30110  Biso   1.000  C
  C121     1.0000 0.31450  0.84270  0.01440  Biso   1.000  C
  C122     1.0000 0.24950  0.80920  0.95760  Biso   1.000  C
  C123     1.0000 0.21270  0.84520  0.94110  Biso   1.000  C
  H53      1.0000 0.22760  0.89130  0.96760  Biso   1.000  H
  C124     1.0000 0.15390  0.81220  0.88500  Biso   1.000  C
  H54      1.0000 0.12820  0.83600  0.87370  Biso   1.000  H
  C125     1.0000 0.13280  0.74480  0.84570  Biso   1.000  C
  H55      1.0000 0.09260  0.72290  0.80760  Biso   1.000  H
  C126     1.0000 0.16920  0.70940  0.86110  Biso   1.000  C
  C127     1.0000 0.22750  0.74130  0.91670  Biso   1.000  C
  H56      1.0000 0.25290  0.71690  0.92730  Biso   1.000  H
  C128     1.0000 0.14720  0.63650  0.81740  Biso   1.000  C
  C129     1.0000 0.58460  0.08450  0.80070  Biso   1.000  C
  C130     1.0000 0.58240  0.06980  0.73470  Biso   1.000  C
  C131     1.0000 0.59050  0.01180  0.69300  Biso   1.000  C
  H57      1.0000 0.60020  0.98310  0.70760  Biso   1.000  H
  C132     1.0000 0.58420  0.99630  0.63000  Biso   1.000  C
  H58      1.0000 0.58950  0.95680  0.60150  Biso   1.000  H
  C133     1.0000 0.57020  0.03810  0.60880  Biso   1.000  C
  H59      1.0000 0.56580  0.02720  0.56560  Biso   1.000  H
  C134     1.0000 0.56240  0.09650  0.65070  Biso   1.000  C
  C135     1.0000 0.56950  0.11201  0.71400  Biso   1.000  C
  H60      1.0000 0.56540  0.15210  0.74320  Biso   1.000  H
  C136     1.0000 0.54610  0.14220  0.62880  Biso   1.000  C
  C137     1.0000 0.44430  0.87920  0.99930  Biso   1.000  C
  C138     1.0000 0.45360  0.86960  0.94030  Biso   1.000  C
  C139     1.0000 0.45500  0.91820  0.92780  Biso   1.000  C
  H61      1.0000 0.45110  0.95820  0.95740  Biso   1.000  H
  C140     1.0000 0.46180  0.90970  0.87320  Biso   1.000  C
  H62      1.0000 0.46380  0.94410  0.86580  Biso   1.000  H
  C141     1.0000 0.46580  0.85070  0.82890  Biso   1.000  C
  H63      1.0000 0.46970  0.84440  0.79040  Biso   1.000  H
  C142     1.0000 0.46430  0.80080  0.84020  Biso   1.000  C
  C143     1.0000 0.45940  0.81080  0.89720  Biso   1.000  C
  H64      1.0000 0.46010  0.77770  0.90660  Biso   1.000  H
  C144     1.0000 0.46680  0.73680  0.79110  Biso   1.000  C
  C145     1.0000 0.11800  0.18010  0.62450  Biso   1.000  C
  C146     1.0000 0.07910  0.21740  0.60230  Biso   1.000  C
  C147     1.0000 0.02210  0.18550  0.54420  Biso   1.000  C
  H65      1.0000 0.00770  0.13930  0.51690  Biso   1.000  H
  C148     1.0000 0.98660  0.21970  0.52600  Biso   1.000  C
  H66      1.0000 0.94810  0.19740  0.48550  Biso   1.000  H
  C149     1.0000 0.00660  0.28740  0.56670  Biso   1.000  C
  H67      1.0000 0.98120  0.31130  0.55490  Biso   1.000  H
  C150     1.0000 0.06380  0.31980  0.62460  Biso   1.000  C
  C151     1.0000 0.10020  0.28560  0.64280  Biso   1.000  C
  H68      1.0000 0.13930  0.30790  0.68250  Biso   1.000  H
  C152     1.0000 0.08500  0.39330  0.66970  Biso   1.000  C
  C153     1.0000 0.22710  0.10010  0.58220  Biso   1.000  C
  C154     1.0000 0.25490  0.08790  0.53450  Biso   1.000  C
  C155     1.0000 0.22340  0.03490  0.46710  Biso   1.000  C
  H69      1.0000 0.18410  0.00710  0.45080  Biso   1.000  H
  C156     1.0000 0.24940  0.02290  0.42400  Biso   1.000  C
  H70      1.0000 0.22770  0.98730  0.37790  Biso   1.000  H
  C157     1.0000 0.30750  0.06310  0.44880  Biso   1.000  C
  H71      1.0000 0.32530  0.05490  0.41920  Biso   1.000  H
  C158     1.0000 0.33980  0.11530  0.51610  Biso   1.000  C
  C159     1.0000 0.31260  0.12860  0.55870  Biso   1.000  C
  H72      1.0000 0.33350  0.16540  0.60420  Biso   1.000  H
  C160     1.0000 0.40350  0.15680  0.54370  Biso   1.000  C
  C161     1.0000 0.86440  0.86830  0.26080  Biso   1.000  C
  C162     1.0000 0.89170  0.85740  0.21350  Biso   1.000  C
  C163     1.0000 0.93980  0.90620  0.23060  Biso   1.000  C
  H73      1.0000 0.95460  0.94750  0.27180  Biso   1.000  H
  C164     1.0000 0.96620  0.89570  0.18870  Biso   1.000  C
  H74      1.0000 0.99840  0.92980  0.20030  Biso   1.000  H
  C165     1.0000 0.94520  0.83330  0.12760  Biso   1.000  C
  H75      1.0000 0.96390  0.82500  0.09870  Biso   1.000  H
  C166     1.0000 0.89710  0.78500  0.11100  Biso   1.000  C
  C167     1.0000 0.86920  0.79720  0.15320  Biso   1.000  C
  H76      1.0000 0.83520  0.76440  0.14060  Biso   1.000  H
  C168     1.0000 0.87550  0.71820  0.04820  Biso   1.000  C
  C169     1.0000 0.16060  0.52960  0.67430  Biso   1.000  C
  C170     1.0000 0.18750  0.54150  0.63530  Biso   1.000  C
  C171     1.0000 0.15080  0.53920  0.57680  Biso   1.000  C
  H77      1.0000 0.10720  0.52780  0.56010  Biso   1.000  H
  C172     1.0000 0.17590  0.55290  0.54190  Biso   1.000  C
  H78      1.0000 0.14990  0.55130  0.50190  Biso   1.000  H
  C173     1.0000 0.23980  0.56900  0.56640  Biso   1.000  C
  H79      1.0000 0.25780  0.57860  0.54320  Biso   1.000  H
  C174     1.0000 0.27730  0.57110  0.62500  Biso   1.000  C
  C175     1.0000 0.25130  0.55640  0.65880  Biso   1.000  C
  H80      1.0000 0.27700  0.55660  0.69800  Biso   1.000  H
  C176     1.0000 0.34660  0.59160  0.65340  Biso   1.000  C
  C177     1.0000 0.07910  0.50020  0.81840  Biso   1.000  C
  C178     1.0000 0.05420  0.48650  0.85880  Biso   1.000  C
  C179     1.0000 0.99500  0.48810  0.84950  Biso   1.000  C
  H81      1.0000 0.97110  0.50010  0.81980  Biso   1.000  H
  C180     1.0000 0.97040  0.47210  0.88370  Biso   1.000  C
  H82      1.0000 0.93000  0.47380  0.87800  Biso   1.000  H
  C181     1.0000 0.00560  0.45360  0.92660  Biso   1.000  C
  H83      1.0000 0.98860  0.44080  0.94870  Biso   1.000  H
  C182     1.0000 0.06590  0.45370  0.93720  Biso   1.000  C
  C183     1.0000 0.08990  0.47060  0.90320  Biso   1.000  C
  H84      1.0000 0.13100  0.47130  0.91060  Biso   1.000  H
  C184     1.0000 0.10230  0.43260  0.98240  Biso   1.000  C
  C185     1.0000 0.45860  0.51780  0.61320  Biso   1.000  C
  C186     1.0000 0.45990  0.45150  0.56430  Biso   1.000  C
  C187     1.0000 0.45520  0.43640  0.50190  Biso   1.000  C
  H85      1.0000 0.44950  0.46680  0.48880  Biso   1.000  H
  C188     1.0000 0.45910  0.37650  0.45870  Biso   1.000  C
  H86      1.0000 0.45600  0.36610  0.41600  Biso   1.000  H
  C189     1.0000 0.46750  0.33240  0.47740  Biso   1.000  C
  H87      1.0000 0.46910  0.29120  0.44730  Biso   1.000  H
  C190     1.0000 0.47353  0.34810  0.54060  Biso   1.000  C
  C191     1.0000 0.46790  0.40730  0.58340  Biso   1.000  C
  H88      1.0000 0.46950  0.41710  0.62530  Biso   1.000  H
  C192     1.0000 0.48619  0.30110  0.56250  Biso   1.000  C
  C193     1.0000 0.57710  0.66080  0.74000  Biso   1.000  C
  C194     1.0000 0.64490  0.67300  0.76100  Biso   1.000  C
  C195     1.0000 0.67210  0.69930  0.73460  Biso   1.000  C
  H89      1.0000 0.64830  0.71230  0.70580  Biso   1.000  H
  C196     1.0000 0.73460  0.70590  0.75140  Biso   1.000  C
  H90      1.0000 0.75310  0.72210  0.73260  Biso   1.000  H
  C197     1.0000 0.76930  0.68920  0.79490  Biso   1.000  C
  H91      1.0000 0.81200  0.69500  0.80680  Biso   1.000  H
  C198     1.0000 0.74370  0.66420  0.82150  Biso   1.000  C
  C199     1.0000 0.68100  0.65530  0.80360  Biso   1.000  C
  H92      1.0000 0.66280  0.63690  0.82100  Biso   1.000  H
  C200     1.0000 0.78070  0.64340  0.86730  Biso   1.000  C
  C201     1.0000 0.80130  0.49320  0.83730  Biso   1.000  C
  C202     1.0000 0.77690  0.42630  0.77400  Biso   1.000  C
  C203     1.0000 0.81260  0.40440  0.74110  Biso   1.000  C
  H93      1.0000 0.85270  0.43150  0.75860  Biso   1.000  H
  C204     1.0000 0.78920  0.34240  0.68230  Biso   1.000  C
  H94      1.0000 0.81440  0.32650  0.66110  Biso   1.000  H
  C205     1.0000 0.72990  0.30380  0.65450  Biso   1.000  C
  H95      1.0000 0.71400  0.26190  0.61370  Biso   1.000  H
  C206     1.0000 0.69300  0.32650  0.68670  Biso   1.000  C
  C207     1.0000 0.71780  0.38760  0.74700  Biso   1.000  C
  H96      1.0000 0.69370  0.40290  0.76990  Biso   1.000  H
  C208     1.0000 0.62770  0.28710  0.65560  Biso   1.000  C
  Cu13     1.0000 0.13714  0.06356  0.61370  Biso   1.000  Cu
  Cu14     1.0000 0.22792  0.17247  0.70992  Biso   1.000  Cu
  Cu15     1.0000 0.51675  0.18351  0.53975  Biso   1.000  Cu
  Cu16     1.0000 0.51340  0.26108  0.65417  Biso   1.000  Cu
  Cu17     1.0000 0.88735  0.62004  0.93540  Biso   1.000  Cu
  Cu18     1.0000 0.79037  0.59091  0.95001  Biso   1.000  Cu
  Cu19     1.0000 0.45601  0.64590  0.65747  Biso   1.000  Cu
  Cu20     1.0000 0.46849  0.60906  0.74284  Biso   1.000  Cu
  Cu21     1.0000 0.06262  0.51495  0.70756  Biso   1.000  Cu
  Cu22     1.0000 0.17232  0.51479  0.78297  Biso   1.000  Cu
  Cu23     1.0000 0.41978  0.95422  0.11101  Biso   1.000  Cu
  Cu24     1.0000 0.43481  0.84054  0.08519  Biso   1.000  Cu
  O61      1.0000 0.50930  0.98991  0.17149  Biso   1.000  O
  O62      1.0000 0.52260  0.89269  0.14725  Biso   1.000  O
  O63      1.0000 0.33362  0.90401  0.04632  Biso   1.000  O
  O64      1.0000 0.34497  0.80758  0.02555  Biso   1.000  O
  O65      1.0000 0.59220  0.04219  0.81448  Biso   1.000  O
  O66      1.0000 0.57680  0.13768  0.83548  Biso   1.000  O
  O67      1.0000 0.43650  0.93247  0.03396  Biso   1.000  O
  O68      1.0000 0.44587  0.83392  0.00963  Biso   1.000  O
  O69      1.0000 0.80598  0.97464  0.34690  Biso   1.000  O
  O70      1.0000 0.72688  0.88296  0.26852  Biso   1.000  O
  O71      1.0000 0.09474  0.11962  0.59029  Biso   1.000  O
  O72      1.0000 0.17098  0.21264  0.67442  Biso   1.000  O
  O73      1.0000 0.17866  0.05840  0.55930  Biso   1.000  O
  O74      1.0000 0.25430  0.15222  0.63962  Biso   1.000  O
  O75      1.0000 0.89311  0.91779  0.31974  Biso   1.000  O
  O76      1.0000 0.81402  0.82731  0.23655  Biso   1.000  O
  O77      1.0000 0.04687  0.42141  0.65500  Biso   1.000  O
  O78      1.0000 0.14013  0.42007  0.71730  Biso   1.000  O
  O79      1.0000 0.09360  0.60990  0.76840  Biso   1.000  O
  O80      1.0000 0.18424  0.60894  0.83500  Biso   1.000  O
  O81      1.0000 0.10445  0.52350  0.65680  Biso   1.000  O
  O82      1.0000 0.19670  0.52560  0.72240  Biso   1.000  O
  O83      1.0000 0.04263  0.50680  0.77310  Biso   1.000  O
  O84      1.0000 0.13472  0.50340  0.83410  Biso   1.000  O
  O85      1.0000 0.45798  0.72643  0.73429  Biso   1.000  O
  O86      1.0000 0.47677  0.69756  0.80990  Biso   1.000  O
  O87      1.0000 0.45711  0.55816  0.59607  Biso   1.000  O
  O88      1.0000 0.45829  0.52552  0.66571  Biso   1.000  O
  O89      1.0000 0.36787  0.60859  0.62385  Biso   1.000  O
  O90      1.0000 0.37781  0.58885  0.70427  Biso   1.000  O
  O91      1.0000 0.54577  0.67447  0.69800  Biso   1.000  O
  O92      1.0000 0.55633  0.63696  0.76549  Biso   1.000  O
  O93      1.0000 0.83575  0.64750  0.87770  Biso   1.000  O
  O94      1.0000 0.75438  0.62450  0.89260  Biso   1.000  O
  O95      1.0000 0.07571  0.41150  0.00542  Biso   1.000  O
  O96      1.0000 0.15807  0.43810  0.99400  Biso   1.000  O
  O97      1.0000 0.85128  0.53047  0.85575  Biso   1.000  O
  O98      1.0000 0.76859  0.50646  0.86760  Biso   1.000  O
  O99      1.0000 0.90700  0.70660  0.01640  Biso   1.000  O
  O100     1.0000 0.82666  0.67933  0.03096  Biso   1.000  O
  O101     1.0000 0.49643  0.25189  0.52427  Biso   1.000  O
  O102     1.0000 0.48666  0.31527  0.61779  Biso   1.000  O
  O103     1.0000 0.53661  0.12382  0.56859  Biso   1.000  O
  O104     1.0000 0.54172  0.19391  0.66950  Biso   1.000  O
  O105     1.0000 0.42793  0.14162  0.50420  Biso   1.000  O
  O106     1.0000 0.42786  0.20421  0.60393  Biso   1.000  O
  O107     1.0000 0.60484  0.23619  0.59652  Biso   1.000  O
  O108     1.0000 0.59854  0.30825  0.68942  Biso   1.000  O
  O109     1.0000 0.43810  0.74100  0.04440  Biso   1.000  O
  O110     1.0000 0.46600  0.76020  0.08630  Biso   1.000  O
  O111     1.0000 0.62910  0.75410  0.10100  Biso   1.000  O
  O112     1.0000 0.26000  0.40640  0.96070  Biso   1.000  O
  O113     1.0000 0.40430  0.70430  0.97930  Biso   1.000  O
  N7       1.0000 0.28000  0.35630  0.88660  Biso   1.000  N
  N8       1.0000 0.27910  0.36580  0.86860  Biso   1.000  N
  N9       1.0000 0.28480  0.29800  0.87030  Biso   1.000  N
  O114     1.0000 0.28630  0.26930  0.79660  Biso   1.000  O
  O115     1.0000 0.29510  0.26550  0.79180  Biso   1.000  O
  C209     1.0000 0.25910  0.30760  0.82000  Biso   1.000  C
  C210     1.0000 0.32900  0.35900  0.93760  Biso   1.000  C
  C211     1.0000 0.33580  0.29400  0.92100  Biso   1.000  C
  C212     1.0000 0.24180  0.40390  0.85910  Biso   1.000  C
  C213     1.0000 0.25690  0.41310  0.91140  Biso   1.000  C
  N10      1.0000 0.36430  0.60410  0.89540  Biso   1.000  N
  O116     1.0000 0.26810  0.52860  0.84660  Biso   1.000  O
  C214     1.0000 0.30740  0.58170  0.85950  Biso   1.000  C
  C215     1.0000 0.40920  0.66410  0.92440  Biso   1.000  C
  C216     1.0000 0.39660  0.56000  0.91400  Biso   1.000  C
  C217     1.0000 0.39060  0.62790  0.86590  Biso   1.000  C
  N11      1.0000 0.65560  0.52960  0.86920  Biso   1.000  N
  O117     1.0000 0.72040  0.57300  0.97790  Biso   1.000  O
  O118     1.0000 0.70120  0.56080  0.93920  Biso   1.000  O
  C218     1.0000 0.67400  0.53160  0.92660  Biso   1.000  C
  C219     1.0000 0.60400  0.47440  0.80610  Biso   1.000  C
  C220     1.0000 0.66600  0.59200  0.87500  Biso   1.000  C
  C221     1.0000 0.60180  0.49430  0.84380  Biso   1.000  C
  N12      1.0000 0.55530  0.50360  0.81790  Biso   1.000  N
  O119     1.0000 0.49800  0.56940  0.80610  Biso   1.000  O
  O120     1.0000 0.47080  0.56900  0.80240  Biso   1.000  O
  C222     1.0000 0.53240  0.53700  0.79420  Biso   1.000  C
  C223     1.0000 0.55640  0.50500  0.87980  Biso   1.000  C
  C224     1.0000 0.56320  0.46270  0.77420  Biso   1.000  C
