data_image0
_cell_length_a       20.9247
_cell_length_b       20.9247
_cell_length_c       6.4
_cell_angle_alpha    90
_cell_angle_beta     90
_cell_angle_gamma    120

_symmetry_space_group_name_H-M    "P 1"
_symmetry_int_tables_number       1

loop_
  _symmetry_equiv_pos_as_xyz
  'x, y, z'

loop_
  _atom_site_label
  _atom_site_occupancy
  _atom_site_fract_x
  _atom_site_fract_y
  _atom_site_fract_z
  _atom_site_thermal_displace_type
  _atom_site_B_iso_or_equiv
  _atom_site_type_symbol
  Cu1      1.0000 0.89286  0.94643  0.25000  Biso   1.000  Cu
  Cu2      1.0000 0.05357  0.94643  0.25000  Biso   1.000  Cu
  Cu3      1.0000 0.05357  0.10714  0.25000  Biso   1.000  Cu
  O1       1.0000 0.00000  0.00000  0.15000  Biso   1.000  O
  O2       1.0000 0.00000  0.00000  0.35000  Biso   1.000  O
  C1       1.0000 0.70502  0.29498  0.25000  Biso   1.000  C
  C2       1.0000 0.74641  0.25359  0.25000  Biso   1.000  C
  C3       1.0000 0.82311  0.17689  0.25000  Biso   1.000  C
  C4       1.0000 0.86450  0.13550  0.25000  Biso   1.000  C
  C5       1.0000 0.70502  0.41004  0.25000  Biso   1.000  C
  C6       1.0000 0.74641  0.49281  0.25000  Biso   1.000  C
  C7       1.0000 0.82311  0.64622  0.25000  Biso   1.000  C
  C8       1.0000 0.86450  0.72900  0.25000  Biso   1.000  C
  C9       1.0000 0.58996  0.29498  0.25000  Biso   1.000  C
  C10      1.0000 0.50719  0.25359  0.25000  Biso   1.000  C
  C11      1.0000 0.35378  0.17689  0.25000  Biso   1.000  C
  C12      1.0000 0.27100  0.13550  0.25000  Biso   1.000  C
  C13      1.0000 0.74337  0.37169  0.25000  Biso   1.000  C
  H1       1.0000 0.79580  0.39790  0.25000  Biso   1.000  H
  C14      1.0000 0.62831  0.37169  0.25000  Biso   1.000  C
  H2       1.0000 0.60210  0.39790  0.25000  Biso   1.000  H
  C15      1.0000 0.62831  0.25663  0.25000  Biso   1.000  C
  H3       1.0000 0.60210  0.20420  0.25000  Biso   1.000  H
  C16      1.0000 0.70805  0.17689  0.25000  Biso   1.000  C
  H4       1.0000 0.65563  0.15068  0.25000  Biso   1.000  H
  C17      1.0000 0.74641  0.13854  0.25000  Biso   1.000  C
  H5       1.0000 0.72019  0.08611  0.25000  Biso   1.000  H
  C18      1.0000 0.83397  0.06086  0.25000  Biso   1.000  C
  H6       1.0000 0.78270  0.02578  0.25000  Biso   1.000  H
  N1       1.0000 0.88975  0.04526  0.25000  Biso   1.000  N
  C19      1.0000 0.82311  0.53117  0.25000  Biso   1.000  C
  H7       1.0000 0.84932  0.50495  0.25000  Biso   1.000  H
  C20      1.0000 0.86146  0.60787  0.25000  Biso   1.000  C
  H8       1.0000 0.91389  0.63408  0.25000  Biso   1.000  H
  C21      1.0000 0.93914  0.77311  0.25000  Biso   1.000  C
  H9       1.0000 0.97422  0.75691  0.25000  Biso   1.000  H
  N2       1.0000 0.95474  0.84449  0.25000  Biso   1.000  N
  C22      1.0000 0.46883  0.29195  0.25000  Biso   1.000  C
  H10      1.0000 0.49505  0.34437  0.25000  Biso   1.000  H
  C23      1.0000 0.39213  0.25359  0.25000  Biso   1.000  C
  H11      1.0000 0.36592  0.27981  0.25000  Biso   1.000  H
  C24      1.0000 0.22689  0.16603  0.25000  Biso   1.000  C
  H12      1.0000 0.24309  0.21730  0.25000  Biso   1.000  H
  N3       1.0000 0.15551  0.11025  0.25000  Biso   1.000  N
  C25      1.0000 0.82311  0.29195  0.25000  Biso   1.000  C
  H13      1.0000 0.84932  0.34437  0.25000  Biso   1.000  H
  C26      1.0000 0.86146  0.25359  0.25000  Biso   1.000  C
  H14      1.0000 0.91389  0.27981  0.25000  Biso   1.000  H
  C27      1.0000 0.93914  0.16603  0.25000  Biso   1.000  C
  H15      1.0000 0.97422  0.21730  0.25000  Biso   1.000  H
  N4       1.0000 0.95474  0.11025  0.25000  Biso   1.000  N
  C28      1.0000 0.46883  0.17689  0.25000  Biso   1.000  C
  H16      1.0000 0.49505  0.15068  0.25000  Biso   1.000  H
  C29      1.0000 0.39213  0.13854  0.25000  Biso   1.000  C
  H17      1.0000 0.36592  0.08611  0.25000  Biso   1.000  H
  C30      1.0000 0.22689  0.06086  0.25000  Biso   1.000  C
  H18      1.0000 0.24309  0.02578  0.25000  Biso   1.000  H
  N5       1.0000 0.15551  0.04526  0.25000  Biso   1.000  N
  C31      1.0000 0.70805  0.53117  0.25000  Biso   1.000  C
  H19      1.0000 0.65563  0.50495  0.25000  Biso   1.000  H
  C32      1.0000 0.74641  0.60787  0.25000  Biso   1.000  C
  H20      1.0000 0.72019  0.63408  0.25000  Biso   1.000  H
  C33      1.0000 0.83397  0.77311  0.25000  Biso   1.000  C
  H21      1.0000 0.78270  0.75691  0.25000  Biso   1.000  H
  N6       1.0000 0.88975  0.84449  0.25000  Biso   1.000  N
  Cu4      1.0000 0.10714  0.05357  0.75000  Biso   1.000  Cu
  Cu5      1.0000 0.94643  0.05357  0.75000  Biso   1.000  Cu
  Cu6      1.0000 0.94643  0.89286  0.75000  Biso   1.000  Cu
  O3       1.0000 0.00000  0.00000  0.65000  Biso   1.000  O
  O4       1.0000 0.00000  0.00000  0.85000  Biso   1.000  O
  C34      1.0000 0.29498  0.70502  0.75000  Biso   1.000  C
  C35      1.0000 0.25359  0.74641  0.75000  Biso   1.000  C
  C36      1.0000 0.17689  0.82311  0.75000  Biso   1.000  C
  C37      1.0000 0.13550  0.86450  0.75000  Biso   1.000  C
  C38      1.0000 0.29498  0.58996  0.75000  Biso   1.000  C
  C39      1.0000 0.25359  0.50719  0.75000  Biso   1.000  C
  C40      1.0000 0.17689  0.35378  0.75000  Biso   1.000  C
  C41      1.0000 0.13550  0.27100  0.75000  Biso   1.000  C
  C42      1.0000 0.41004  0.70502  0.75000  Biso   1.000  C
  C43      1.0000 0.49281  0.74641  0.75000  Biso   1.000  C
  C44      1.0000 0.64622  0.82311  0.75000  Biso   1.000  C
  C45      1.0000 0.72900  0.86450  0.75000  Biso   1.000  C
  C46      1.0000 0.25663  0.62831  0.75000  Biso   1.000  C
  H22      1.0000 0.20420  0.60210  0.75000  Biso   1.000  H
  C47      1.0000 0.37169  0.62831  0.75000  Biso   1.000  C
  H23      1.0000 0.39790  0.60210  0.75000  Biso   1.000  H
  C48      1.0000 0.37169  0.74337  0.75000  Biso   1.000  C
  H24      1.0000 0.39790  0.79580  0.75000  Biso   1.000  H
  C49      1.0000 0.29195  0.82311  0.75000  Biso   1.000  C
  H25      1.0000 0.34437  0.84932  0.75000  Biso   1.000  H
  C50      1.0000 0.25359  0.86146  0.75000  Biso   1.000  C
  H26      1.0000 0.27981  0.91389  0.75000  Biso   1.000  H
  C51      1.0000 0.16603  0.93914  0.75000  Biso   1.000  C
  H27      1.0000 0.21730  0.97422  0.75000  Biso   1.000  H
  N7       1.0000 0.11025  0.95474  0.75000  Biso   1.000  N
  C52      1.0000 0.17689  0.46883  0.75000  Biso   1.000  C
  H28      1.0000 0.15068  0.49505  0.75000  Biso   1.000  H
  C53      1.0000 0.13854  0.39213  0.75000  Biso   1.000  C
  H29      1.0000 0.08611  0.36592  0.75000  Biso   1.000  H
  C54      1.0000 0.06086  0.22689  0.75000  Biso   1.000  C
  H30      1.0000 0.02578  0.24309  0.75000  Biso   1.000  H
  N8       1.0000 0.04526  0.15551  0.75000  Biso   1.000  N
  C55      1.0000 0.53117  0.70805  0.75000  Biso   1.000  C
  H31      1.0000 0.50495  0.65563  0.75000  Biso   1.000  H
  C56      1.0000 0.60787  0.74641  0.75000  Biso   1.000  C
  H32      1.0000 0.63408  0.72019  0.75000  Biso   1.000  H
  C57      1.0000 0.77311  0.83397  0.75000  Biso   1.000  C
  H33      1.0000 0.75691  0.78270  0.75000  Biso   1.000  H
  N9       1.0000 0.84449  0.88975  0.75000  Biso   1.000  N
  C58      1.0000 0.17689  0.70805  0.75000  Biso   1.000  C
  H34      1.0000 0.15068  0.65563  0.75000  Biso   1.000  H
  C59      1.0000 0.13854  0.74641  0.75000  Biso   1.000  C
  H35      1.0000 0.08611  0.72019  0.75000  Biso   1.000  H
  C60      1.0000 0.06086  0.83397  0.75000  Biso   1.000  C
  H36      1.0000 0.02578  0.78270  0.75000  Biso   1.000  H
  N10      1.0000 0.04526  0.88975  0.75000  Biso   1.000  N
  C61      1.0000 0.53117  0.82311  0.75000  Biso   1.000  C
  H37      1.0000 0.50495  0.84932  0.75000  Biso   1.000  H
  C62      1.0000 0.60787  0.86146  0.75000  Biso   1.000  C
  H38      1.0000 0.63408  0.91389  0.75000  Biso   1.000  H
  C63      1.0000 0.77311  0.93914  0.75000  Biso   1.000  C
  H39      1.0000 0.75691  0.97422  0.75000  Biso   1.000  H
  N11      1.0000 0.84449  0.95474  0.75000  Biso   1.000  N
  C64      1.0000 0.29195  0.46883  0.75000  Biso   1.000  C
  H40      1.0000 0.34437  0.49505  0.75000  Biso   1.000  H
  C65      1.0000 0.25359  0.39213  0.75000  Biso   1.000  C
  H41      1.0000 0.27981  0.36592  0.75000  Biso   1.000  H
  C66      1.0000 0.16603  0.22689  0.75000  Biso   1.000  C
  H42      1.0000 0.21730  0.24309  0.75000  Biso   1.000  H
  N12      1.0000 0.11025  0.15551  0.75000  Biso   1.000  N
