data_image0
_cell_length_a       9.625
_cell_length_b       13.5168
_cell_length_c       23.6869
_cell_angle_alpha    90
_cell_angle_beta     111.174
_cell_angle_gamma    90

_symmetry_space_group_name_H-M    "P 1"
_symmetry_int_tables_number       1

loop_
  _symmetry_equiv_pos_as_xyz
  'x, y, z'

loop_
  _atom_site_label
  _atom_site_occupancy
  _atom_site_fract_x
  _atom_site_fract_y
  _atom_site_fract_z
  _atom_site_thermal_displace_type
  _atom_site_B_iso_or_equiv
  _atom_site_type_symbol
  C1       1.0000 0.23490  0.47018  0.49073  Biso   1.000  C
  H1       1.0000 0.14420  0.46290  0.45890  Biso   1.000  H
  C2       1.0000 0.49540  0.49423  0.58611  Biso   1.000  C
  C3       1.0000 0.14130  0.62783  0.52307  Biso   1.000  C
  C4       1.0000 0.76930  0.42657  0.86520  Biso   1.000  C
  C5       1.0000 0.63640  0.51825  0.63845  Biso   1.000  C
  C6       1.0000 0.70590  0.79097  0.75998  Biso   1.000  C
  C7       1.0000 0.30670  0.57097  0.74137  Biso   1.000  C
  C8       1.0000 0.77770  0.38021  0.80880  Biso   1.000  C
  C9       1.0000 0.35020  0.40251  0.49882  Biso   1.000  C
  C10      1.0000 0.43590  0.62700  0.78593  Biso   1.000  C
  C11      1.0000 0.84510  0.54586  0.94457  Biso   1.000  C
  C12      1.0000 0.84850  0.51085  0.88980  Biso   1.000  C
  H2       1.0000 0.90320  0.54370  0.87020  Biso   1.000  H
  C13      1.0000 0.68140  0.41152  0.94233  Biso   1.000  C
  C14      1.0000 0.48320  0.41402  0.54807  Biso   1.000  C
  H3       1.0000 0.56120  0.36940  0.55520  Biso   1.000  H
  C15      1.0000 0.62830  0.73360  0.79493  Biso   1.000  C
  C16      1.0000 0.66570  0.74212  0.85678  Biso   1.000  C
  H4       1.0000 0.74580  0.78100  0.87990  Biso   1.000  H
  C17      1.0000 0.57940  0.69048  0.88360  Biso   1.000  C
  C18      1.0000 0.58900  0.35029  0.96866  Biso   1.000  C
  C19      1.0000 0.75810  0.49475  0.97136  Biso   1.000  C
  H5       1.0000 0.75200  0.51620  0.00770  Biso   1.000  H
  C20      1.0000 0.46250  0.63041  0.84705  Biso   1.000  C
  H6       1.0000 0.40470  0.59400  0.86360  Biso   1.000  H
  C21      1.0000 0.25780  0.54765  0.53066  Biso   1.000  C
  Eu1      1.0000 0.99158  0.43867  0.72411  Biso   1.000  Eu
  Eu2      1.0000 0.41281  0.70434  0.64797  Biso   1.000  Eu
  N1       1.0000 0.51625  0.67753  0.75987  Biso   1.000  N
  N2       1.0000 0.38548  0.56044  0.57787  Biso   1.000  N
  N3       1.0000 0.68639  0.37660  0.89042  Biso   1.000  N
  O1       1.0000 0.21933  0.52844  0.76138  Biso   1.000  O
  O2       1.0000 0.61304  0.70054  0.94292  Biso   1.000  O
  H7       1.0000 0.55550  0.66720  0.95350  Biso   1.000  H
  O3       1.0000 0.63408  0.59674  0.66719  Biso   1.000  O
  O4       1.0000 0.92580  0.62624  0.96793  Biso   1.000  O
  H8       1.0000 0.91620  0.64060  0.99990  Biso   1.000  H
  O5       1.0000 0.63498  0.80048  0.70391  Biso   1.000  O
  O6       1.0000 0.32466  0.33236  0.45629  Biso   1.000  O
  H9       1.0000 0.39900  0.29760  0.46380  Biso   1.000  H
  O7       1.0000 0.52809  0.27422  0.93886  Biso   1.000  O
  O8       1.0000 0.58120  0.37692  0.01771  Biso   1.000  O
  O9       1.0000 0.72760  0.29379  0.79645  Biso   1.000  O
  O10      1.0000 0.83565  0.43062  0.77920  Biso   1.000  O
  O11      1.0000 0.74537  0.46092  0.64899  Biso   1.000  O
  O12      1.0000 0.29618  0.57386  0.68677  Biso   1.000  O
  O13      1.0000 0.83236  0.82424  0.78870  Biso   1.000  O
  O14      1.0000 0.03212  0.63227  0.47556  Biso   1.000  O
  O15      1.0000 0.16945  0.68653  0.56813  Biso   1.000  O
  C22      1.0000 0.76510  0.97018  0.00927  Biso   1.000  C
  H10      1.0000 0.85580  0.96290  0.04110  Biso   1.000  H
  C23      1.0000 0.50460  0.99423  0.91389  Biso   1.000  C
  C24      1.0000 0.85870  0.12783  0.97693  Biso   1.000  C
  C25      1.0000 0.23070  0.92657  0.63480  Biso   1.000  C
  C26      1.0000 0.36360  0.01825  0.86155  Biso   1.000  C
  C27      1.0000 0.29410  0.29097  0.74002  Biso   1.000  C
  C28      1.0000 0.69330  0.07097  0.75863  Biso   1.000  C
  C29      1.0000 0.22230  0.88021  0.69120  Biso   1.000  C
  C30      1.0000 0.64980  0.90251  0.00118  Biso   1.000  C
  C31      1.0000 0.56410  0.12700  0.71407  Biso   1.000  C
  C32      1.0000 0.15490  0.04586  0.55543  Biso   1.000  C
  C33      1.0000 0.15150  0.01085  0.61020  Biso   1.000  C
  H11      1.0000 0.09680  0.04370  0.62980  Biso   1.000  H
  C34      1.0000 0.31860  0.91152  0.55767  Biso   1.000  C
  C35      1.0000 0.51680  0.91402  0.95193  Biso   1.000  C
  H12      1.0000 0.43880  0.86940  0.94480  Biso   1.000  H
  C36      1.0000 0.37170  0.23360  0.70507  Biso   1.000  C
  C37      1.0000 0.33430  0.24212  0.64322  Biso   1.000  C
  H13      1.0000 0.25420  0.28100  0.62010  Biso   1.000  H
  C38      1.0000 0.42060  0.19048  0.61640  Biso   1.000  C
  C39      1.0000 0.41100  0.85029  0.53134  Biso   1.000  C
  C40      1.0000 0.24190  0.99475  0.52864  Biso   1.000  C
  H14      1.0000 0.24800  0.01620  0.49230  Biso   1.000  H
  C41      1.0000 0.53750  0.13041  0.65295  Biso   1.000  C
  H15      1.0000 0.59530  0.09400  0.63640  Biso   1.000  H
  C42      1.0000 0.74220  0.04765  0.96934  Biso   1.000  C
  Eu3      1.0000 0.00842  0.93867  0.77589  Biso   1.000  Eu
  Eu4      1.0000 0.58719  0.20434  0.85202  Biso   1.000  Eu
  N4       1.0000 0.48375  0.17753  0.74013  Biso   1.000  N
  N5       1.0000 0.61452  0.06044  0.92213  Biso   1.000  N
  N6       1.0000 0.31361  0.87660  0.60958  Biso   1.000  N
  O16      1.0000 0.78067  0.02844  0.73862  Biso   1.000  O
  O17      1.0000 0.38696  0.20054  0.55708  Biso   1.000  O
  H16      1.0000 0.44450  0.16720  0.54650  Biso   1.000  H
  O18      1.0000 0.36592  0.09674  0.83281  Biso   1.000  O
  O19      1.0000 0.07420  0.12624  0.53207  Biso   1.000  O
  H17      1.0000 0.08380  0.14060  0.50010  Biso   1.000  H
  O20      1.0000 0.36502  0.30048  0.79609  Biso   1.000  O
  O21      1.0000 0.67534  0.83236  0.04371  Biso   1.000  O
  H18      1.0000 0.60100  0.79760  0.03620  Biso   1.000  H
  O22      1.0000 0.47191  0.77422  0.56114  Biso   1.000  O
  O23      1.0000 0.41880  0.87692  0.48229  Biso   1.000  O
  O24      1.0000 0.27240  0.79379  0.70355  Biso   1.000  O
  O25      1.0000 0.16435  0.93062  0.72080  Biso   1.000  O
  O26      1.0000 0.25463  0.96092  0.85101  Biso   1.000  O
  O27      1.0000 0.70382  0.07386  0.81323  Biso   1.000  O
  O28      1.0000 0.16764  0.32424  0.71130  Biso   1.000  O
  O29      1.0000 0.96788  0.13227  0.02444  Biso   1.000  O
  O30      1.0000 0.83055  0.18653  0.93187  Biso   1.000  O
  C43      1.0000 0.76510  0.52982  0.50927  Biso   1.000  C
  H19      1.0000 0.85580  0.53710  0.54110  Biso   1.000  H
  C44      1.0000 0.50460  0.50577  0.41389  Biso   1.000  C
  C45      1.0000 0.85870  0.37217  0.47693  Biso   1.000  C
  C46      1.0000 0.23070  0.57343  0.13480  Biso   1.000  C
  C47      1.0000 0.36360  0.48175  0.36155  Biso   1.000  C
  C48      1.0000 0.29410  0.20903  0.24002  Biso   1.000  C
  C49      1.0000 0.69330  0.42903  0.25863  Biso   1.000  C
  C50      1.0000 0.22230  0.61979  0.19120  Biso   1.000  C
  C51      1.0000 0.64980  0.59749  0.50118  Biso   1.000  C
  C52      1.0000 0.56410  0.37300  0.21407  Biso   1.000  C
  C53      1.0000 0.15490  0.45414  0.05543  Biso   1.000  C
  C54      1.0000 0.15150  0.48915  0.11020  Biso   1.000  C
  H20      1.0000 0.09680  0.45630  0.12980  Biso   1.000  H
  C55      1.0000 0.31860  0.58848  0.05767  Biso   1.000  C
  C56      1.0000 0.51680  0.58598  0.45193  Biso   1.000  C
  H21      1.0000 0.43880  0.63060  0.44480  Biso   1.000  H
  C57      1.0000 0.37170  0.26640  0.20507  Biso   1.000  C
  C58      1.0000 0.33430  0.25788  0.14322  Biso   1.000  C
  H22      1.0000 0.25420  0.21900  0.12010  Biso   1.000  H
  C59      1.0000 0.42060  0.30952  0.11640  Biso   1.000  C
  C60      1.0000 0.41100  0.64971  0.03134  Biso   1.000  C
  C61      1.0000 0.24190  0.50525  0.02864  Biso   1.000  C
  H23      1.0000 0.24800  0.48380  0.99230  Biso   1.000  H
  C62      1.0000 0.53750  0.36959  0.15295  Biso   1.000  C
  H24      1.0000 0.59530  0.40600  0.13640  Biso   1.000  H
  C63      1.0000 0.74220  0.45235  0.46934  Biso   1.000  C
  Eu5      1.0000 0.00842  0.56133  0.27589  Biso   1.000  Eu
  Eu6      1.0000 0.58719  0.29566  0.35202  Biso   1.000  Eu
  N7       1.0000 0.48375  0.32247  0.24013  Biso   1.000  N
  N8       1.0000 0.61452  0.43956  0.42213  Biso   1.000  N
  N9       1.0000 0.31361  0.62340  0.10958  Biso   1.000  N
  O31      1.0000 0.78067  0.47156  0.23862  Biso   1.000  O
  O32      1.0000 0.38696  0.29946  0.05708  Biso   1.000  O
  H25      1.0000 0.44450  0.33280  0.04650  Biso   1.000  H
  O33      1.0000 0.36592  0.40326  0.33281  Biso   1.000  O
  O34      1.0000 0.07420  0.37376  0.03207  Biso   1.000  O
  H26      1.0000 0.08380  0.35940  0.00010  Biso   1.000  H
  O35      1.0000 0.36502  0.19952  0.29609  Biso   1.000  O
  O36      1.0000 0.67534  0.66764  0.54371  Biso   1.000  O
  H27      1.0000 0.60100  0.70240  0.53620  Biso   1.000  H
  O37      1.0000 0.47191  0.72578  0.06114  Biso   1.000  O
  O38      1.0000 0.41880  0.62308  0.98229  Biso   1.000  O
  O39      1.0000 0.27240  0.70621  0.20355  Biso   1.000  O
  O40      1.0000 0.16435  0.56938  0.22080  Biso   1.000  O
  O41      1.0000 0.25463  0.53908  0.35101  Biso   1.000  O
  O42      1.0000 0.70382  0.42614  0.31323  Biso   1.000  O
  O43      1.0000 0.16764  0.17576  0.21130  Biso   1.000  O
  O44      1.0000 0.96788  0.36773  0.52444  Biso   1.000  O
  O45      1.0000 0.83055  0.31347  0.43187  Biso   1.000  O
  C64      1.0000 0.23490  0.02982  0.99073  Biso   1.000  C
  H28      1.0000 0.14420  0.03710  0.95890  Biso   1.000  H
  C65      1.0000 0.49540  0.00577  0.08611  Biso   1.000  C
  C66      1.0000 0.14130  0.87217  0.02307  Biso   1.000  C
  C67      1.0000 0.76930  0.07343  0.36520  Biso   1.000  C
  C68      1.0000 0.63640  0.98175  0.13845  Biso   1.000  C
  C69      1.0000 0.70590  0.70903  0.25998  Biso   1.000  C
  C70      1.0000 0.30670  0.92903  0.24137  Biso   1.000  C
  C71      1.0000 0.77770  0.11979  0.30880  Biso   1.000  C
  C72      1.0000 0.35020  0.09749  0.99882  Biso   1.000  C
  C73      1.0000 0.43590  0.87300  0.28593  Biso   1.000  C
  C74      1.0000 0.84510  0.95414  0.44457  Biso   1.000  C
  C75      1.0000 0.84850  0.98915  0.38980  Biso   1.000  C
  H29      1.0000 0.90320  0.95630  0.37020  Biso   1.000  H
  C76      1.0000 0.68140  0.08848  0.44233  Biso   1.000  C
  C77      1.0000 0.48320  0.08598  0.04807  Biso   1.000  C
  H30      1.0000 0.56120  0.13060  0.05520  Biso   1.000  H
  C78      1.0000 0.62830  0.76640  0.29493  Biso   1.000  C
  C79      1.0000 0.66570  0.75788  0.35678  Biso   1.000  C
  H31      1.0000 0.74580  0.71900  0.37990  Biso   1.000  H
  C80      1.0000 0.57940  0.80952  0.38360  Biso   1.000  C
  C81      1.0000 0.58900  0.14971  0.46866  Biso   1.000  C
  C82      1.0000 0.75810  0.00525  0.47136  Biso   1.000  C
  H32      1.0000 0.75200  0.98380  0.50770  Biso   1.000  H
  C83      1.0000 0.46250  0.86959  0.34705  Biso   1.000  C
  H33      1.0000 0.40470  0.90600  0.36360  Biso   1.000  H
  C84      1.0000 0.25780  0.95235  0.03066  Biso   1.000  C
  Eu7      1.0000 0.99158  0.06133  0.22411  Biso   1.000  Eu
  Eu8      1.0000 0.41281  0.79566  0.14797  Biso   1.000  Eu
  N10      1.0000 0.51625  0.82247  0.25987  Biso   1.000  N
  N11      1.0000 0.38548  0.93956  0.07787  Biso   1.000  N
  N12      1.0000 0.68639  0.12340  0.39042  Biso   1.000  N
  O46      1.0000 0.21933  0.97156  0.26138  Biso   1.000  O
  O47      1.0000 0.61304  0.79946  0.44292  Biso   1.000  O
  H34      1.0000 0.55550  0.83280  0.45350  Biso   1.000  H
  O48      1.0000 0.63408  0.90326  0.16719  Biso   1.000  O
  O49      1.0000 0.92580  0.87376  0.46793  Biso   1.000  O
  H35      1.0000 0.91620  0.85940  0.49990  Biso   1.000  H
  O50      1.0000 0.63498  0.69952  0.20391  Biso   1.000  O
  O51      1.0000 0.32466  0.16764  0.95629  Biso   1.000  O
  H36      1.0000 0.39900  0.20240  0.96380  Biso   1.000  H
  O52      1.0000 0.52809  0.22578  0.43886  Biso   1.000  O
  O53      1.0000 0.58120  0.12308  0.51771  Biso   1.000  O
  O54      1.0000 0.72760  0.20621  0.29645  Biso   1.000  O
  O55      1.0000 0.83565  0.06938  0.27920  Biso   1.000  O
  O56      1.0000 0.74537  0.03908  0.14899  Biso   1.000  O
  O57      1.0000 0.29618  0.92614  0.18677  Biso   1.000  O
  O58      1.0000 0.83236  0.67576  0.28870  Biso   1.000  O
  O59      1.0000 0.03212  0.86773  0.97556  Biso   1.000  O
  O60      1.0000 0.16945  0.81347  0.06813  Biso   1.000  O
