data_image0
_cell_length_a       30.09
_cell_length_b       17.23
_cell_length_c       8.658
_cell_angle_alpha    90
_cell_angle_beta     90
_cell_angle_gamma    90

_symmetry_space_group_name_H-M    "P 1"
_symmetry_int_tables_number       1

loop_
  _symmetry_equiv_pos_as_xyz
  'x, y, z'

loop_
  _atom_site_label
  _atom_site_occupancy
  _atom_site_fract_x
  _atom_site_fract_y
  _atom_site_fract_z
  _atom_site_thermal_displace_type
  _atom_site_B_iso_or_equiv
  _atom_site_type_symbol
  O1       1.0000 0.44290  0.83730  0.83100  Biso   1.000  O
  O2       1.0000 0.44200  0.93620  0.67680  Biso   1.000  O
  C1       1.0000 0.42620  0.87540  0.73000  Biso   1.000  C
  C2       1.0000 0.38030  0.85000  0.66700  Biso   1.000  C
  C3       1.0000 0.35940  0.78320  0.72600  Biso   1.000  C
  H1       1.0000 0.37280  0.75430  0.80330  Biso   1.000  H
  C4       1.0000 0.31920  0.76150  0.66700  Biso   1.000  C
  H2       1.0000 0.30520  0.71760  0.70600  Biso   1.000  H
  C5       1.0000 0.29910  0.80290  0.55100  Biso   1.000  C
  C6       1.0000 0.31990  0.86890  0.49200  Biso   1.000  C
  H3       1.0000 0.30630  0.89740  0.41400  Biso   1.000  H
  C7       1.0000 0.35970  0.89140  0.54800  Biso   1.000  C
  H4       1.0000 0.37370  0.93490  0.50630  Biso   1.000  H
  N1       1.0000 0.25760  0.78360  0.48400  Biso   1.000  N
  O3       1.0000 0.94290  0.33730  0.83100  Biso   1.000  O
  O4       1.0000 0.94200  0.43620  0.67680  Biso   1.000  O
  C8       1.0000 0.92620  0.37540  0.73000  Biso   1.000  C
  C9       1.0000 0.88030  0.35000  0.66700  Biso   1.000  C
  C10      1.0000 0.85940  0.28320  0.72600  Biso   1.000  C
  H5       1.0000 0.87280  0.25430  0.80330  Biso   1.000  H
  C11      1.0000 0.81920  0.26150  0.66700  Biso   1.000  C
  H6       1.0000 0.80520  0.21760  0.70600  Biso   1.000  H
  C12      1.0000 0.79910  0.30290  0.55100  Biso   1.000  C
  C13      1.0000 0.81990  0.36890  0.49200  Biso   1.000  C
  H7       1.0000 0.80630  0.39740  0.41400  Biso   1.000  H
  C14      1.0000 0.85970  0.39140  0.54800  Biso   1.000  C
  H8       1.0000 0.87370  0.43490  0.50630  Biso   1.000  H
  N2       1.0000 0.75760  0.28360  0.48400  Biso   1.000  N
  O5       1.0000 0.44290  0.16270  0.16900  Biso   1.000  O
  O6       1.0000 0.44200  0.06380  0.32320  Biso   1.000  O
  C15      1.0000 0.42620  0.12460  0.27000  Biso   1.000  C
  C16      1.0000 0.38030  0.15000  0.33300  Biso   1.000  C
  C17      1.0000 0.35940  0.21680  0.27400  Biso   1.000  C
  H9       1.0000 0.37280  0.24570  0.19670  Biso   1.000  H
  C18      1.0000 0.31920  0.23850  0.33300  Biso   1.000  C
  H10      1.0000 0.30520  0.28240  0.29400  Biso   1.000  H
  C19      1.0000 0.29910  0.19710  0.44900  Biso   1.000  C
  C20      1.0000 0.31990  0.13110  0.50800  Biso   1.000  C
  H11      1.0000 0.30630  0.10260  0.58600  Biso   1.000  H
  C21      1.0000 0.35970  0.10860  0.45200  Biso   1.000  C
  H12      1.0000 0.37370  0.06510  0.49370  Biso   1.000  H
  N3       1.0000 0.25760  0.21640  0.51600  Biso   1.000  N
  O7       1.0000 0.94290  0.66270  0.16900  Biso   1.000  O
  O8       1.0000 0.94200  0.56380  0.32320  Biso   1.000  O
  C22      1.0000 0.92620  0.62460  0.27000  Biso   1.000  C
  C23      1.0000 0.88030  0.65000  0.33300  Biso   1.000  C
  C24      1.0000 0.85940  0.71680  0.27400  Biso   1.000  C
  H13      1.0000 0.87280  0.74570  0.19670  Biso   1.000  H
  C25      1.0000 0.81920  0.73850  0.33300  Biso   1.000  C
  H14      1.0000 0.80520  0.78240  0.29400  Biso   1.000  H
  C26      1.0000 0.79910  0.69710  0.44900  Biso   1.000  C
  C27      1.0000 0.81990  0.63110  0.50800  Biso   1.000  C
  H15      1.0000 0.80630  0.60260  0.58600  Biso   1.000  H
  C28      1.0000 0.85970  0.60860  0.45200  Biso   1.000  C
  H16      1.0000 0.87370  0.56510  0.49370  Biso   1.000  H
  N4       1.0000 0.75760  0.71640  0.51600  Biso   1.000  N
  O9       1.0000 0.55710  0.16270  0.16900  Biso   1.000  O
  O10      1.0000 0.55800  0.06380  0.32320  Biso   1.000  O
  C29      1.0000 0.57380  0.12460  0.27000  Biso   1.000  C
  C30      1.0000 0.61970  0.15000  0.33300  Biso   1.000  C
  C31      1.0000 0.64060  0.21680  0.27400  Biso   1.000  C
  H17      1.0000 0.62720  0.24570  0.19670  Biso   1.000  H
  C32      1.0000 0.68080  0.23850  0.33300  Biso   1.000  C
  H18      1.0000 0.69480  0.28240  0.29400  Biso   1.000  H
  C33      1.0000 0.70090  0.19710  0.44900  Biso   1.000  C
  C34      1.0000 0.68010  0.13110  0.50800  Biso   1.000  C
  H19      1.0000 0.69370  0.10260  0.58600  Biso   1.000  H
  C35      1.0000 0.64030  0.10860  0.45200  Biso   1.000  C
  H20      1.0000 0.62630  0.06510  0.49370  Biso   1.000  H
  N5       1.0000 0.74240  0.21640  0.51600  Biso   1.000  N
  O11      1.0000 0.05710  0.66270  0.16900  Biso   1.000  O
  O12      1.0000 0.05800  0.56380  0.32320  Biso   1.000  O
  C36      1.0000 0.07380  0.62460  0.27000  Biso   1.000  C
  C37      1.0000 0.11970  0.65000  0.33300  Biso   1.000  C
  C38      1.0000 0.14060  0.71680  0.27400  Biso   1.000  C
  H21      1.0000 0.12720  0.74570  0.19670  Biso   1.000  H
  C39      1.0000 0.18080  0.73850  0.33300  Biso   1.000  C
  H22      1.0000 0.19480  0.78240  0.29400  Biso   1.000  H
  C40      1.0000 0.20090  0.69710  0.44900  Biso   1.000  C
  C41      1.0000 0.18010  0.63110  0.50800  Biso   1.000  C
  H23      1.0000 0.19370  0.60260  0.58600  Biso   1.000  H
  C42      1.0000 0.14030  0.60860  0.45200  Biso   1.000  C
  H24      1.0000 0.12630  0.56510  0.49370  Biso   1.000  H
  N6       1.0000 0.24240  0.71640  0.51600  Biso   1.000  N
  O13      1.0000 0.55710  0.83730  0.83100  Biso   1.000  O
  O14      1.0000 0.55800  0.93620  0.67680  Biso   1.000  O
  C43      1.0000 0.57380  0.87540  0.73000  Biso   1.000  C
  C44      1.0000 0.61970  0.85000  0.66700  Biso   1.000  C
  C45      1.0000 0.64060  0.78320  0.72600  Biso   1.000  C
  H25      1.0000 0.62720  0.75430  0.80330  Biso   1.000  H
  C46      1.0000 0.68080  0.76150  0.66700  Biso   1.000  C
  H26      1.0000 0.69480  0.71760  0.70600  Biso   1.000  H
  C47      1.0000 0.70090  0.80290  0.55100  Biso   1.000  C
  C48      1.0000 0.68010  0.86890  0.49200  Biso   1.000  C
  H27      1.0000 0.69370  0.89740  0.41400  Biso   1.000  H
  C49      1.0000 0.64030  0.89140  0.54800  Biso   1.000  C
  H28      1.0000 0.62630  0.93490  0.50630  Biso   1.000  H
  N7       1.0000 0.74240  0.78360  0.48400  Biso   1.000  N
  O15      1.0000 0.05710  0.33730  0.83100  Biso   1.000  O
  O16      1.0000 0.05800  0.43620  0.67680  Biso   1.000  O
  C50      1.0000 0.07380  0.37540  0.73000  Biso   1.000  C
  C51      1.0000 0.11970  0.35000  0.66700  Biso   1.000  C
  C52      1.0000 0.14060  0.28320  0.72600  Biso   1.000  C
  H29      1.0000 0.12720  0.25430  0.80330  Biso   1.000  H
  C53      1.0000 0.18080  0.26150  0.66700  Biso   1.000  C
  H30      1.0000 0.19480  0.21760  0.70600  Biso   1.000  H
  C54      1.0000 0.20090  0.30290  0.55100  Biso   1.000  C
  C55      1.0000 0.18010  0.36890  0.49200  Biso   1.000  C
  H31      1.0000 0.19370  0.39740  0.41400  Biso   1.000  H
  C56      1.0000 0.14030  0.39140  0.54800  Biso   1.000  C
  H32      1.0000 0.12630  0.43490  0.50630  Biso   1.000  H
  N8       1.0000 0.24240  0.28360  0.48400  Biso   1.000  N
  Cd1      1.0000 0.50000  0.93150  0.84610  Biso   1.000  Cd
  O17      1.0000 0.50000  0.94100  0.10090  Biso   1.000  O
  C57      1.0000 0.50000  0.88010  0.20970  Biso   1.000  C
  C58      1.0000 0.50000  0.90400  0.36200  Biso   1.000  C
  C59      1.0000 0.50000  0.81200  0.14200  Biso   1.000  C
  Cd2      1.0000 0.00000  0.43150  0.84610  Biso   1.000  Cd
  O18      1.0000 0.00000  0.44100  0.10090  Biso   1.000  O
  C60      1.0000 0.00000  0.38010  0.20970  Biso   1.000  C
  C61      1.0000 0.00000  0.40400  0.36200  Biso   1.000  C
  C62      1.0000 0.00000  0.31200  0.14200  Biso   1.000  C
  Cd3      1.0000 0.50000  0.06850  0.15390  Biso   1.000  Cd
  O19      1.0000 0.50000  0.05900  0.89910  Biso   1.000  O
  C63      1.0000 0.50000  0.11990  0.79030  Biso   1.000  C
  C64      1.0000 0.50000  0.09600  0.63800  Biso   1.000  C
  C65      1.0000 0.50000  0.18800  0.85800  Biso   1.000  C
  Cd4      1.0000 0.00000  0.56850  0.15390  Biso   1.000  Cd
  O20      1.0000 0.00000  0.55900  0.89910  Biso   1.000  O
  C66      1.0000 0.00000  0.61990  0.79030  Biso   1.000  C
  C67      1.0000 0.00000  0.59600  0.63800  Biso   1.000  C
  C68      1.0000 0.00000  0.68800  0.85800  Biso   1.000  C
  O21      1.0000 0.55710  0.66270  0.33100  Biso   1.000  O
  O22      1.0000 0.55800  0.56380  0.17680  Biso   1.000  O
  C69      1.0000 0.57380  0.62460  0.23000  Biso   1.000  C
  C70      1.0000 0.61970  0.65000  0.16700  Biso   1.000  C
  C71      1.0000 0.64060  0.71680  0.22600  Biso   1.000  C
  H33      1.0000 0.62720  0.74570  0.30330  Biso   1.000  H
  C72      1.0000 0.68080  0.73850  0.16700  Biso   1.000  C
  H34      1.0000 0.69480  0.78240  0.20600  Biso   1.000  H
  C73      1.0000 0.70090  0.69710  0.05100  Biso   1.000  C
  C74      1.0000 0.68010  0.63110  0.99200  Biso   1.000  C
  H35      1.0000 0.69370  0.60260  0.91400  Biso   1.000  H
  C75      1.0000 0.64030  0.60860  0.04800  Biso   1.000  C
  H36      1.0000 0.62630  0.56510  0.00630  Biso   1.000  H
  N9       1.0000 0.74240  0.71640  0.98400  Biso   1.000  N
  O23      1.0000 0.05710  0.16270  0.33100  Biso   1.000  O
  O24      1.0000 0.05800  0.06380  0.17680  Biso   1.000  O
  C76      1.0000 0.07380  0.12460  0.23000  Biso   1.000  C
  C77      1.0000 0.11970  0.15000  0.16700  Biso   1.000  C
  C78      1.0000 0.14060  0.21680  0.22600  Biso   1.000  C
  H37      1.0000 0.12720  0.24570  0.30330  Biso   1.000  H
  C79      1.0000 0.18080  0.23850  0.16700  Biso   1.000  C
  H38      1.0000 0.19480  0.28240  0.20600  Biso   1.000  H
  C80      1.0000 0.20090  0.19710  0.05100  Biso   1.000  C
  C81      1.0000 0.18010  0.13110  0.99200  Biso   1.000  C
  H39      1.0000 0.19370  0.10260  0.91400  Biso   1.000  H
  C82      1.0000 0.14030  0.10860  0.04800  Biso   1.000  C
  H40      1.0000 0.12630  0.06510  0.00630  Biso   1.000  H
  N10      1.0000 0.24240  0.21640  0.98400  Biso   1.000  N
  O25      1.0000 0.55710  0.33730  0.66900  Biso   1.000  O
  O26      1.0000 0.55800  0.43620  0.82320  Biso   1.000  O
  C83      1.0000 0.57380  0.37540  0.77000  Biso   1.000  C
  C84      1.0000 0.61970  0.35000  0.83300  Biso   1.000  C
  C85      1.0000 0.64060  0.28320  0.77400  Biso   1.000  C
  H41      1.0000 0.62720  0.25430  0.69670  Biso   1.000  H
  C86      1.0000 0.68080  0.26150  0.83300  Biso   1.000  C
  H42      1.0000 0.69480  0.21760  0.79400  Biso   1.000  H
  C87      1.0000 0.70090  0.30290  0.94900  Biso   1.000  C
  C88      1.0000 0.68010  0.36890  0.00800  Biso   1.000  C
  H43      1.0000 0.69370  0.39740  0.08600  Biso   1.000  H
  C89      1.0000 0.64030  0.39140  0.95200  Biso   1.000  C
  H44      1.0000 0.62630  0.43490  0.99370  Biso   1.000  H
  N11      1.0000 0.74240  0.28360  0.01600  Biso   1.000  N
  O27      1.0000 0.05710  0.83730  0.66900  Biso   1.000  O
  O28      1.0000 0.05800  0.93620  0.82320  Biso   1.000  O
  C90      1.0000 0.07380  0.87540  0.77000  Biso   1.000  C
  C91      1.0000 0.11970  0.85000  0.83300  Biso   1.000  C
  C92      1.0000 0.14060  0.78320  0.77400  Biso   1.000  C
  H45      1.0000 0.12720  0.75430  0.69670  Biso   1.000  H
  C93      1.0000 0.18080  0.76150  0.83300  Biso   1.000  C
  H46      1.0000 0.19480  0.71760  0.79400  Biso   1.000  H
  C94      1.0000 0.20090  0.80290  0.94900  Biso   1.000  C
  C95      1.0000 0.18010  0.86890  0.00800  Biso   1.000  C
  H47      1.0000 0.19370  0.89740  0.08600  Biso   1.000  H
  C96      1.0000 0.14030  0.89140  0.95200  Biso   1.000  C
  H48      1.0000 0.12630  0.93490  0.99370  Biso   1.000  H
  N12      1.0000 0.24240  0.78360  0.01600  Biso   1.000  N
  O29      1.0000 0.44290  0.33730  0.66900  Biso   1.000  O
  O30      1.0000 0.44200  0.43620  0.82320  Biso   1.000  O
  C97      1.0000 0.42620  0.37540  0.77000  Biso   1.000  C
  C98      1.0000 0.38030  0.35000  0.83300  Biso   1.000  C
  C99      1.0000 0.35940  0.28320  0.77400  Biso   1.000  C
  H49      1.0000 0.37280  0.25430  0.69670  Biso   1.000  H
  C100     1.0000 0.31920  0.26150  0.83300  Biso   1.000  C
  H50      1.0000 0.30520  0.21760  0.79400  Biso   1.000  H
  C101     1.0000 0.29910  0.30290  0.94900  Biso   1.000  C
  C102     1.0000 0.31990  0.36890  0.00800  Biso   1.000  C
  H51      1.0000 0.30630  0.39740  0.08600  Biso   1.000  H
  C103     1.0000 0.35970  0.39140  0.95200  Biso   1.000  C
  H52      1.0000 0.37370  0.43490  0.99370  Biso   1.000  H
  N13      1.0000 0.25760  0.28360  0.01600  Biso   1.000  N
  O31      1.0000 0.94290  0.83730  0.66900  Biso   1.000  O
  O32      1.0000 0.94200  0.93620  0.82320  Biso   1.000  O
  C104     1.0000 0.92620  0.87540  0.77000  Biso   1.000  C
  C105     1.0000 0.88030  0.85000  0.83300  Biso   1.000  C
  C106     1.0000 0.85940  0.78320  0.77400  Biso   1.000  C
  H53      1.0000 0.87280  0.75430  0.69670  Biso   1.000  H
  C107     1.0000 0.81920  0.76150  0.83300  Biso   1.000  C
  H54      1.0000 0.80520  0.71760  0.79400  Biso   1.000  H
  C108     1.0000 0.79910  0.80290  0.94900  Biso   1.000  C
  C109     1.0000 0.81990  0.86890  0.00800  Biso   1.000  C
  H55      1.0000 0.80630  0.89740  0.08600  Biso   1.000  H
  C110     1.0000 0.85970  0.89140  0.95200  Biso   1.000  C
  H56      1.0000 0.87370  0.93490  0.99370  Biso   1.000  H
  N14      1.0000 0.75760  0.78360  0.01600  Biso   1.000  N
  O33      1.0000 0.44290  0.66270  0.33100  Biso   1.000  O
  O34      1.0000 0.44200  0.56380  0.17680  Biso   1.000  O
  C111     1.0000 0.42620  0.62460  0.23000  Biso   1.000  C
  C112     1.0000 0.38030  0.65000  0.16700  Biso   1.000  C
  C113     1.0000 0.35940  0.71680  0.22600  Biso   1.000  C
  H57      1.0000 0.37280  0.74570  0.30330  Biso   1.000  H
  C114     1.0000 0.31920  0.73850  0.16700  Biso   1.000  C
  H58      1.0000 0.30520  0.78240  0.20600  Biso   1.000  H
  C115     1.0000 0.29910  0.69710  0.05100  Biso   1.000  C
  C116     1.0000 0.31990  0.63110  0.99200  Biso   1.000  C
  H59      1.0000 0.30630  0.60260  0.91400  Biso   1.000  H
  C117     1.0000 0.35970  0.60860  0.04800  Biso   1.000  C
  H60      1.0000 0.37370  0.56510  0.00630  Biso   1.000  H
  N15      1.0000 0.25760  0.71640  0.98400  Biso   1.000  N
  O35      1.0000 0.94290  0.16270  0.33100  Biso   1.000  O
  O36      1.0000 0.94200  0.06380  0.17680  Biso   1.000  O
  C118     1.0000 0.92620  0.12460  0.23000  Biso   1.000  C
  C119     1.0000 0.88030  0.15000  0.16700  Biso   1.000  C
  C120     1.0000 0.85940  0.21680  0.22600  Biso   1.000  C
  H61      1.0000 0.87280  0.24570  0.30330  Biso   1.000  H
  C121     1.0000 0.81920  0.23850  0.16700  Biso   1.000  C
  H62      1.0000 0.80520  0.28240  0.20600  Biso   1.000  H
  C122     1.0000 0.79910  0.19710  0.05100  Biso   1.000  C
  C123     1.0000 0.81990  0.13110  0.99200  Biso   1.000  C
  H63      1.0000 0.80630  0.10260  0.91400  Biso   1.000  H
  C124     1.0000 0.85970  0.10860  0.04800  Biso   1.000  C
  H64      1.0000 0.87370  0.06510  0.00630  Biso   1.000  H
  N16      1.0000 0.75760  0.21640  0.98400  Biso   1.000  N
  Cd5      1.0000 0.50000  0.56850  0.34610  Biso   1.000  Cd
  O37      1.0000 0.50000  0.55900  0.60090  Biso   1.000  O
  C125     1.0000 0.50000  0.61990  0.70970  Biso   1.000  C
  C126     1.0000 0.50000  0.59600  0.86200  Biso   1.000  C
  C127     1.0000 0.50000  0.68800  0.64200  Biso   1.000  C
  Cd6      1.0000 0.00000  0.06850  0.34610  Biso   1.000  Cd
  O38      1.0000 0.00000  0.05900  0.60090  Biso   1.000  O
  C128     1.0000 0.00000  0.11990  0.70970  Biso   1.000  C
  C129     1.0000 0.00000  0.09600  0.86200  Biso   1.000  C
  C130     1.0000 0.00000  0.18800  0.64200  Biso   1.000  C
  Cd7      1.0000 0.50000  0.43150  0.65390  Biso   1.000  Cd
  O39      1.0000 0.50000  0.44100  0.39910  Biso   1.000  O
  C131     1.0000 0.50000  0.38010  0.29030  Biso   1.000  C
  C132     1.0000 0.50000  0.40400  0.13800  Biso   1.000  C
  C133     1.0000 0.50000  0.31200  0.35800  Biso   1.000  C
  Cd8      1.0000 0.00000  0.93150  0.65390  Biso   1.000  Cd
  O40      1.0000 0.00000  0.94100  0.39910  Biso   1.000  O
  C134     1.0000 0.00000  0.88010  0.29030  Biso   1.000  C
  C135     1.0000 0.00000  0.90400  0.13800  Biso   1.000  C
  C136     1.0000 0.00000  0.81200  0.35800  Biso   1.000  C
