data_image0
_cell_length_a       9.415
_cell_length_b       10.117
_cell_length_c       14.657
_cell_angle_alpha    85.815
_cell_angle_beta     74.704
_cell_angle_gamma    70.067

_symmetry_space_group_name_H-M    "P 1"
_symmetry_int_tables_number       1

loop_
  _symmetry_equiv_pos_as_xyz
  'x, y, z'

loop_
  _atom_site_label
  _atom_site_occupancy
  _atom_site_fract_x
  _atom_site_fract_y
  _atom_site_fract_z
  _atom_site_thermal_displace_type
  _atom_site_B_iso_or_equiv
  _atom_site_type_symbol
  C1       1.0000 0.16020  0.31090  0.97120  Biso   1.000  C
  H1       1.0000 0.12630  0.40040  0.94690  Biso   1.000  H
  C2       1.0000 0.07560  0.22310  0.97350  Biso   1.000  C
  H2       1.0000 0.98500  0.25340  0.95230  Biso   1.000  H
  C3       1.0000 0.12710  0.08980  0.00760  Biso   1.000  C
  C4       1.0000 0.25910  0.04930  0.04180  Biso   1.000  C
  H3       1.0000 0.29530  0.95990  0.06580  Biso   1.000  H
  C5       1.0000 0.33590  0.14450  0.03940  Biso   1.000  C
  H4       1.0000 0.42260  0.11880  0.06420  Biso   1.000  H
  C6       1.0000 0.62130  0.35880  0.13060  Biso   1.000  C
  C7       1.0000 0.66290  0.27800  0.21420  Biso   1.000  C
  C8       1.0000 0.70310  0.33770  0.28180  Biso   1.000  C
  H5       1.0000 0.71620  0.42510  0.27160  Biso   1.000  H
  C9       1.0000 0.72370  0.26680  0.36470  Biso   1.000  C
  H6       1.0000 0.74800  0.30880  0.41010  Biso   1.000  H
  C10      1.0000 0.70890  0.13450  0.38120  Biso   1.000  C
  C11      1.0000 0.67430  0.07540  0.31070  Biso   1.000  C
  H7       1.0000 0.66650  0.98580  0.31920  Biso   1.000  H
  C12      1.0000 0.65120  0.14460  0.22920  Biso   1.000  C
  H8       1.0000 0.62750  0.10200  0.18370  Biso   1.000  H
  C13      1.0000 0.72040  0.05890  0.47110  Biso   1.000  C
  C14      1.0000 0.62370  0.12810  0.55640  Biso   1.000  C
  H9       1.0000 0.56210  0.22190  0.55560  Biso   1.000  H
  C15      1.0000 0.61860  0.05870  0.64210  Biso   1.000  C
  C16      1.0000 0.70990  0.91720  0.64320  Biso   1.000  C
  C17      1.0000 0.80540  0.84900  0.55920  Biso   1.000  C
  H10      1.0000 0.86530  0.75460  0.56000  Biso   1.000  H
  C18      1.0000 0.81340  0.91950  0.47270  Biso   1.000  C
  C19      1.0000 0.92890  0.84690  0.38650  Biso   1.000  C
  C20      1.0000 0.03960  0.90600  0.33580  Biso   1.000  C
  H11      1.0000 0.03810  0.99150  0.35610  Biso   1.000  H
  C21      1.0000 0.15110  0.84020  0.25610  Biso   1.000  C
  H12      1.0000 0.22680  0.87920  0.22520  Biso   1.000  H
  C22      1.0000 0.15100  0.71520  0.22140  Biso   1.000  C
  C23      1.0000 0.03910  0.65710  0.27050  Biso   1.000  C
  H13      1.0000 0.03690  0.57450  0.24780  Biso   1.000  H
  C24      1.0000 0.93090  0.72020  0.35250  Biso   1.000  C
  H14      1.0000 0.85900  0.67830  0.38540  Biso   1.000  H
  C25      1.0000 0.27420  0.64400  0.13590  Biso   1.000  C
  C26      1.0000 0.78050  0.71010  0.73040  Biso   1.000  C
  H15      1.0000 0.76650  0.67850  0.79450  Biso   1.000  H
  H16      1.0000 0.88980  0.69080  0.70160  Biso   1.000  H
  H17      1.0000 0.73930  0.66150  0.69560  Biso   1.000  H
  C27      1.0000 0.44950  0.26590  0.73020  Biso   1.000  C
  H18      1.0000 0.39070  0.29590  0.79380  Biso   1.000  H
  H19      1.0000 0.37980  0.28730  0.68960  Biso   1.000  H
  H20      1.0000 0.52400  0.31400  0.70880  Biso   1.000  H
  N1       1.0000 0.28980  0.27270  0.00260  Biso   1.000  N
  N2       1.0000 0.05810  0.97620  0.01270  Biso   1.000  N
  O1       1.0000 0.66690  0.46240  0.10587  Biso   1.000  O
  O2       1.0000 0.53860  0.31920  0.09100  Biso   1.000  O
  O3       1.0000 0.25540  0.54470  0.09947  Biso   1.000  O
  O4       1.0000 0.38920  0.68720  0.10736  Biso   1.000  O
  O5       1.0000 0.52980  0.11780  0.72774  Biso   1.000  O
  O6       1.0000 0.70000  0.85780  0.72967  Biso   1.000  O
  Zn1      1.0000 0.41299  0.40701  0.99519  Biso   1.000  Zn
  C28      1.0000 0.83980  0.68910  0.02880  Biso   1.000  C
  H21      1.0000 0.87370  0.59960  0.05310  Biso   1.000  H
  C29      1.0000 0.92440  0.77690  0.02650  Biso   1.000  C
  H22      1.0000 0.01500  0.74660  0.04770  Biso   1.000  H
  C30      1.0000 0.87290  0.91020  0.99240  Biso   1.000  C
  C31      1.0000 0.74090  0.95070  0.95820  Biso   1.000  C
  H23      1.0000 0.70470  0.04010  0.93420  Biso   1.000  H
  C32      1.0000 0.66410  0.85550  0.96060  Biso   1.000  C
  H24      1.0000 0.57740  0.88120  0.93580  Biso   1.000  H
  C33      1.0000 0.37870  0.64120  0.86940  Biso   1.000  C
  C34      1.0000 0.33710  0.72200  0.78580  Biso   1.000  C
  C35      1.0000 0.29690  0.66230  0.71820  Biso   1.000  C
  H25      1.0000 0.28380  0.57490  0.72840  Biso   1.000  H
  C36      1.0000 0.27630  0.73320  0.63530  Biso   1.000  C
  H26      1.0000 0.25200  0.69120  0.58990  Biso   1.000  H
  C37      1.0000 0.29110  0.86550  0.61880  Biso   1.000  C
  C38      1.0000 0.32570  0.92460  0.68930  Biso   1.000  C
  H27      1.0000 0.33350  0.01420  0.68080  Biso   1.000  H
  C39      1.0000 0.34880  0.85540  0.77080  Biso   1.000  C
  H28      1.0000 0.37250  0.89800  0.81630  Biso   1.000  H
  C40      1.0000 0.27960  0.94110  0.52890  Biso   1.000  C
  C41      1.0000 0.37630  0.87190  0.44360  Biso   1.000  C
  H29      1.0000 0.43790  0.77810  0.44440  Biso   1.000  H
  C42      1.0000 0.38140  0.94130  0.35790  Biso   1.000  C
  C43      1.0000 0.29010  0.08280  0.35680  Biso   1.000  C
  C44      1.0000 0.19460  0.15100  0.44080  Biso   1.000  C
  H30      1.0000 0.13470  0.24540  0.44000  Biso   1.000  H
  C45      1.0000 0.18660  0.08050  0.52730  Biso   1.000  C
  C46      1.0000 0.07110  0.15310  0.61350  Biso   1.000  C
  C47      1.0000 0.96040  0.09400  0.66420  Biso   1.000  C
  H31      1.0000 0.96190  0.00850  0.64390  Biso   1.000  H
  C48      1.0000 0.84890  0.15980  0.74390  Biso   1.000  C
  H32      1.0000 0.77320  0.12080  0.77480  Biso   1.000  H
  C49      1.0000 0.84900  0.28480  0.77860  Biso   1.000  C
  C50      1.0000 0.96090  0.34290  0.72950  Biso   1.000  C
  H33      1.0000 0.96310  0.42550  0.75220  Biso   1.000  H
  C51      1.0000 0.06910  0.27980  0.64750  Biso   1.000  C
  H34      1.0000 0.14100  0.32170  0.61460  Biso   1.000  H
  C52      1.0000 0.72580  0.35600  0.86410  Biso   1.000  C
  C53      1.0000 0.21950  0.28990  0.26960  Biso   1.000  C
  H35      1.0000 0.23350  0.32150  0.20550  Biso   1.000  H
  H36      1.0000 0.11020  0.30920  0.29840  Biso   1.000  H
  H37      1.0000 0.26070  0.33850  0.30440  Biso   1.000  H
  C54      1.0000 0.55050  0.73410  0.26980  Biso   1.000  C
  H38      1.0000 0.60930  0.70410  0.20620  Biso   1.000  H
  H39      1.0000 0.62020  0.71270  0.31040  Biso   1.000  H
  H40      1.0000 0.47600  0.68600  0.29120  Biso   1.000  H
  N3       1.0000 0.71020  0.72730  0.99740  Biso   1.000  N
  N4       1.0000 0.94190  0.02380  0.98730  Biso   1.000  N
  O7       1.0000 0.33310  0.53760  0.89413  Biso   1.000  O
  O8       1.0000 0.46140  0.68080  0.90900  Biso   1.000  O
  O9       1.0000 0.74460  0.45530  0.90053  Biso   1.000  O
  O10      1.0000 0.61080  0.31280  0.89264  Biso   1.000  O
  O11      1.0000 0.47020  0.88220  0.27226  Biso   1.000  O
  O12      1.0000 0.30000  0.14220  0.27033  Biso   1.000  O
  Zn2      1.0000 0.58701  0.59299  0.00481  Biso   1.000  Zn
