data_image0
_cell_length_a       16.337
_cell_length_b       11.925
_cell_length_c       14.007
_cell_angle_alpha    90
_cell_angle_beta     100.84
_cell_angle_gamma    90

_symmetry_space_group_name_H-M    "P 1"
_symmetry_int_tables_number       1

loop_
  _symmetry_equiv_pos_as_xyz
  'x, y, z'

loop_
  _atom_site_label
  _atom_site_occupancy
  _atom_site_fract_x
  _atom_site_fract_y
  _atom_site_fract_z
  _atom_site_thermal_displace_type
  _atom_site_B_iso_or_equiv
  _atom_site_type_symbol
  Zn1      1.0000 0.28366  0.02044  0.22162  Biso   1.000  Zn
  S1       1.0000 0.02524  0.13483  0.90363  Biso   1.000  S
  O1       1.0000 0.93915  0.13558  0.90466  Biso   1.000  O
  O2       1.0000 0.06536  0.06263  0.84738  Biso   1.000  O
  N1       1.0000 0.17402  0.07586  0.14069  Biso   1.000  N
  N2       1.0000 0.07400  0.11753  0.01806  Biso   1.000  N
  N3       1.0000 0.04974  0.26484  0.87662  Biso   1.000  N
  N4       1.0000 0.12333  0.40310  0.83252  Biso   1.000  N
  C1       1.0000 0.15216  0.07390  0.04600  Biso   1.000  C
  H1       1.0000 0.18510  0.04680  0.00370  Biso   1.000  H
  C2       1.0000 0.10741  0.12380  0.17610  Biso   1.000  C
  H2       1.0000 0.10610  0.13540  0.24140  Biso   1.000  H
  C3       1.0000 0.04590  0.15060  0.10230  Biso   1.000  C
  H3       1.0000 0.99520  0.18420  0.10610  Biso   1.000  H
  C4       1.0000 0.12008  0.29370  0.84229  Biso   1.000  C
  H4       1.0000 0.15960  0.24340  0.82800  Biso   1.000  H
  C5       1.0000 0.05273  0.44710  0.86290  Biso   1.000  C
  H5       1.0000 0.03930  0.52280  0.86320  Biso   1.000  H
  C6       1.0000 0.00739  0.36350  0.89130  Biso   1.000  C
  H6       1.0000 0.95840  0.37000  0.91560  Biso   1.000  H
  Zn2      1.0000 0.21634  0.47956  0.77838  Biso   1.000  Zn
  S2       1.0000 0.47476  0.36517  0.09637  Biso   1.000  S
  O3       1.0000 0.56085  0.36442  0.09534  Biso   1.000  O
  O4       1.0000 0.43464  0.43737  0.15262  Biso   1.000  O
  N5       1.0000 0.32598  0.42414  0.85931  Biso   1.000  N
  N6       1.0000 0.42600  0.38247  0.98194  Biso   1.000  N
  N7       1.0000 0.45026  0.23516  0.12338  Biso   1.000  N
  N8       1.0000 0.37667  0.09690  0.16748  Biso   1.000  N
  C7       1.0000 0.34784  0.42610  0.95400  Biso   1.000  C
  H7       1.0000 0.31490  0.45320  0.99630  Biso   1.000  H
  C8       1.0000 0.39259  0.37620  0.82390  Biso   1.000  C
  H8       1.0000 0.39390  0.36460  0.75860  Biso   1.000  H
  C9       1.0000 0.45410  0.34940  0.89770  Biso   1.000  C
  H9       1.0000 0.50480  0.31580  0.89390  Biso   1.000  H
  C10      1.0000 0.37992  0.20630  0.15771  Biso   1.000  C
  H10      1.0000 0.34040  0.25660  0.17200  Biso   1.000  H
  C11      1.0000 0.44727  0.05290  0.13710  Biso   1.000  C
  H11      1.0000 0.46070  0.97720  0.13680  Biso   1.000  H
  C12      1.0000 0.49261  0.13650  0.10870  Biso   1.000  C
  H12      1.0000 0.54160  0.13000  0.08440  Biso   1.000  H
  Zn3      1.0000 0.78366  0.52044  0.22162  Biso   1.000  Zn
  S3       1.0000 0.52524  0.63483  0.90363  Biso   1.000  S
  O5       1.0000 0.43915  0.63558  0.90466  Biso   1.000  O
  O6       1.0000 0.56536  0.56263  0.84738  Biso   1.000  O
  N9       1.0000 0.67402  0.57586  0.14069  Biso   1.000  N
  N10      1.0000 0.57400  0.61753  0.01806  Biso   1.000  N
  N11      1.0000 0.54974  0.76484  0.87662  Biso   1.000  N
  N12      1.0000 0.62333  0.90310  0.83252  Biso   1.000  N
  C13      1.0000 0.65216  0.57390  0.04600  Biso   1.000  C
  H13      1.0000 0.68510  0.54680  0.00370  Biso   1.000  H
  C14      1.0000 0.60741  0.62380  0.17610  Biso   1.000  C
  H14      1.0000 0.60610  0.63540  0.24140  Biso   1.000  H
  C15      1.0000 0.54590  0.65060  0.10230  Biso   1.000  C
  H15      1.0000 0.49520  0.68420  0.10610  Biso   1.000  H
  C16      1.0000 0.62008  0.79370  0.84229  Biso   1.000  C
  H16      1.0000 0.65960  0.74340  0.82800  Biso   1.000  H
  C17      1.0000 0.55273  0.94710  0.86290  Biso   1.000  C
  H17      1.0000 0.53930  0.02280  0.86320  Biso   1.000  H
  C18      1.0000 0.50739  0.86350  0.89130  Biso   1.000  C
  H18      1.0000 0.45840  0.87000  0.91560  Biso   1.000  H
  Zn4      1.0000 0.71634  0.97956  0.77838  Biso   1.000  Zn
  S4       1.0000 0.97476  0.86517  0.09637  Biso   1.000  S
  O7       1.0000 0.06085  0.86442  0.09534  Biso   1.000  O
  O8       1.0000 0.93464  0.93737  0.15262  Biso   1.000  O
  N13      1.0000 0.82598  0.92414  0.85931  Biso   1.000  N
  N14      1.0000 0.92600  0.88247  0.98194  Biso   1.000  N
  N15      1.0000 0.95026  0.73516  0.12338  Biso   1.000  N
  N16      1.0000 0.87667  0.59690  0.16748  Biso   1.000  N
  C19      1.0000 0.84784  0.92610  0.95400  Biso   1.000  C
  H19      1.0000 0.81490  0.95320  0.99630  Biso   1.000  H
  C20      1.0000 0.89259  0.87620  0.82390  Biso   1.000  C
  H20      1.0000 0.89390  0.86460  0.75860  Biso   1.000  H
  C21      1.0000 0.95410  0.84940  0.89770  Biso   1.000  C
  H21      1.0000 0.00480  0.81580  0.89390  Biso   1.000  H
  C22      1.0000 0.87992  0.70630  0.15771  Biso   1.000  C
  H22      1.0000 0.84040  0.75660  0.17200  Biso   1.000  H
  C23      1.0000 0.94727  0.55290  0.13710  Biso   1.000  C
  H23      1.0000 0.96070  0.47720  0.13680  Biso   1.000  H
  C24      1.0000 0.99261  0.63650  0.10870  Biso   1.000  C
  H24      1.0000 0.04160  0.63000  0.08440  Biso   1.000  H
  Zn5      1.0000 0.71634  0.02044  0.27838  Biso   1.000  Zn
  S5       1.0000 0.97476  0.13483  0.59637  Biso   1.000  S
  O9       1.0000 0.06085  0.13558  0.59534  Biso   1.000  O
  O10      1.0000 0.93464  0.06263  0.65262  Biso   1.000  O
  N17      1.0000 0.82598  0.07586  0.35931  Biso   1.000  N
  N18      1.0000 0.92600  0.11753  0.48194  Biso   1.000  N
  N19      1.0000 0.95026  0.26484  0.62338  Biso   1.000  N
  N20      1.0000 0.87667  0.40310  0.66748  Biso   1.000  N
  C25      1.0000 0.84784  0.07390  0.45400  Biso   1.000  C
  H25      1.0000 0.81490  0.04680  0.49630  Biso   1.000  H
  C26      1.0000 0.89259  0.12380  0.32390  Biso   1.000  C
  H26      1.0000 0.89390  0.13540  0.25860  Biso   1.000  H
  C27      1.0000 0.95410  0.15060  0.39770  Biso   1.000  C
  H27      1.0000 0.00480  0.18420  0.39390  Biso   1.000  H
  C28      1.0000 0.87992  0.29370  0.65771  Biso   1.000  C
  H28      1.0000 0.84040  0.24340  0.67200  Biso   1.000  H
  C29      1.0000 0.94727  0.44710  0.63710  Biso   1.000  C
  H29      1.0000 0.96070  0.52280  0.63680  Biso   1.000  H
  C30      1.0000 0.99261  0.36350  0.60870  Biso   1.000  C
  H30      1.0000 0.04160  0.37000  0.58440  Biso   1.000  H
  Zn6      1.0000 0.78366  0.47956  0.72162  Biso   1.000  Zn
  S6       1.0000 0.52524  0.36517  0.40363  Biso   1.000  S
  O11      1.0000 0.43915  0.36442  0.40466  Biso   1.000  O
  O12      1.0000 0.56536  0.43737  0.34738  Biso   1.000  O
  N21      1.0000 0.67402  0.42414  0.64069  Biso   1.000  N
  N22      1.0000 0.57400  0.38247  0.51806  Biso   1.000  N
  N23      1.0000 0.54974  0.23516  0.37662  Biso   1.000  N
  N24      1.0000 0.62333  0.09690  0.33252  Biso   1.000  N
  C31      1.0000 0.65216  0.42610  0.54600  Biso   1.000  C
  H31      1.0000 0.68510  0.45320  0.50370  Biso   1.000  H
  C32      1.0000 0.60741  0.37620  0.67610  Biso   1.000  C
  H32      1.0000 0.60610  0.36460  0.74140  Biso   1.000  H
  C33      1.0000 0.54590  0.34940  0.60230  Biso   1.000  C
  H33      1.0000 0.49520  0.31580  0.60610  Biso   1.000  H
  C34      1.0000 0.62008  0.20630  0.34229  Biso   1.000  C
  H34      1.0000 0.65960  0.25660  0.32800  Biso   1.000  H
  C35      1.0000 0.55273  0.05290  0.36290  Biso   1.000  C
  H35      1.0000 0.53930  0.97720  0.36320  Biso   1.000  H
  C36      1.0000 0.50739  0.13650  0.39130  Biso   1.000  C
  H36      1.0000 0.45840  0.13000  0.41560  Biso   1.000  H
  Zn7      1.0000 0.21634  0.52044  0.27838  Biso   1.000  Zn
  S7       1.0000 0.47476  0.63483  0.59637  Biso   1.000  S
  O13      1.0000 0.56085  0.63558  0.59534  Biso   1.000  O
  O14      1.0000 0.43464  0.56263  0.65262  Biso   1.000  O
  N25      1.0000 0.32598  0.57586  0.35931  Biso   1.000  N
  N26      1.0000 0.42600  0.61753  0.48194  Biso   1.000  N
  N27      1.0000 0.45026  0.76484  0.62338  Biso   1.000  N
  N28      1.0000 0.37667  0.90310  0.66748  Biso   1.000  N
  C37      1.0000 0.34784  0.57390  0.45400  Biso   1.000  C
  H37      1.0000 0.31490  0.54680  0.49630  Biso   1.000  H
  C38      1.0000 0.39259  0.62380  0.32390  Biso   1.000  C
  H38      1.0000 0.39390  0.63540  0.25860  Biso   1.000  H
  C39      1.0000 0.45410  0.65060  0.39770  Biso   1.000  C
  H39      1.0000 0.50480  0.68420  0.39390  Biso   1.000  H
  C40      1.0000 0.37992  0.79370  0.65771  Biso   1.000  C
  H40      1.0000 0.34040  0.74340  0.67200  Biso   1.000  H
  C41      1.0000 0.44727  0.94710  0.63710  Biso   1.000  C
  H41      1.0000 0.46070  0.02280  0.63680  Biso   1.000  H
  C42      1.0000 0.49261  0.86350  0.60870  Biso   1.000  C
  H42      1.0000 0.54160  0.87000  0.58440  Biso   1.000  H
  Zn8      1.0000 0.28366  0.97956  0.72162  Biso   1.000  Zn
  S8       1.0000 0.02524  0.86517  0.40363  Biso   1.000  S
  O15      1.0000 0.93915  0.86442  0.40466  Biso   1.000  O
  O16      1.0000 0.06536  0.93737  0.34738  Biso   1.000  O
  N29      1.0000 0.17402  0.92414  0.64069  Biso   1.000  N
  N30      1.0000 0.07400  0.88247  0.51806  Biso   1.000  N
  N31      1.0000 0.04974  0.73516  0.37662  Biso   1.000  N
  N32      1.0000 0.12333  0.59690  0.33252  Biso   1.000  N
  C43      1.0000 0.15216  0.92610  0.54600  Biso   1.000  C
  H43      1.0000 0.18510  0.95320  0.50370  Biso   1.000  H
  C44      1.0000 0.10741  0.87620  0.67610  Biso   1.000  C
  H44      1.0000 0.10610  0.86460  0.74140  Biso   1.000  H
  C45      1.0000 0.04590  0.84940  0.60230  Biso   1.000  C
  H45      1.0000 0.99520  0.81580  0.60610  Biso   1.000  H
  C46      1.0000 0.12008  0.70630  0.34229  Biso   1.000  C
  H46      1.0000 0.15960  0.75660  0.32800  Biso   1.000  H
  C47      1.0000 0.05273  0.55290  0.36290  Biso   1.000  C
  H47      1.0000 0.03930  0.47720  0.36320  Biso   1.000  H
  C48      1.0000 0.00739  0.63650  0.39130  Biso   1.000  C
  H48      1.0000 0.95840  0.63000  0.41560  Biso   1.000  H
