data_image0
_cell_length_a       8.6147
_cell_length_b       16.5484
_cell_length_c       9.3691
_cell_angle_alpha    90
_cell_angle_beta     93.617
_cell_angle_gamma    90

_symmetry_space_group_name_H-M    "P 1"
_symmetry_int_tables_number       1

loop_
  _symmetry_equiv_pos_as_xyz
  'x, y, z'

loop_
  _atom_site_label
  _atom_site_occupancy
  _atom_site_fract_x
  _atom_site_fract_y
  _atom_site_fract_z
  _atom_site_thermal_displace_type
  _atom_site_B_iso_or_equiv
  _atom_site_type_symbol
  C1       1.0000 0.32410  0.17820  0.50050  Biso   1.000  C
  H1       1.0000 0.41060  0.20750  0.46950  Biso   1.000  H
  C2       1.0000 0.16970  0.08140  0.55100  Biso   1.000  C
  H2       1.0000 0.12880  0.02850  0.56040  Biso   1.000  H
  C3       1.0000 0.09850  0.15010  0.59050  Biso   1.000  C
  H3       1.0000 0.00140  0.15440  0.63250  Biso   1.000  H
  C4       1.0000 0.17410  0.29670  0.57950  Biso   1.000  C
  C5       1.0000 0.07630  0.32230  0.68310  Biso   1.000  C
  H4       1.0000 0.02340  0.28470  0.73930  Biso   1.000  H
  C6       1.0000 0.05940  0.40410  0.70080  Biso   1.000  C
  H5       1.0000 0.99260  0.42420  0.76950  Biso   1.000  H
  C7       1.0000 0.14050  0.45780  0.61760  Biso   1.000  C
  H6       1.0000 0.13160  0.51470  0.62840  Biso   1.000  H
  C8       1.0000 0.23420  0.42430  0.51900  Biso   1.000  C
  C9       1.0000 0.40320  0.44690  0.31640  Biso   1.000  C
  H7       1.0000 0.42370  0.39170  0.29700  Biso   1.000  H
  C10      1.0000 0.31680  0.55750  0.41790  Biso   1.000  C
  H8       1.0000 0.26570  0.59350  0.47840  Biso   1.000  H
  C11      1.0000 0.40390  0.57730  0.30820  Biso   1.000  C
  H9       1.0000 0.42740  0.63080  0.27970  Biso   1.000  H
  N1       1.0000 0.31050  0.09920  0.49500  Biso   1.000  N
  N2       1.0000 0.19650  0.21290  0.55700  Biso   1.000  N
  N3       1.0000 0.25200  0.34500  0.49830  Biso   1.000  N
  N4       1.0000 0.31700  0.47400  0.42410  Biso   1.000  N
  N5       1.0000 0.45310  0.50790  0.24430  Biso   1.000  N
  C12      1.0000 0.67590  0.67820  0.99950  Biso   1.000  C
  H10      1.0000 0.58940  0.70750  0.03050  Biso   1.000  H
  C13      1.0000 0.83030  0.58140  0.94900  Biso   1.000  C
  H11      1.0000 0.87120  0.52850  0.93960  Biso   1.000  H
  C14      1.0000 0.90150  0.65010  0.90950  Biso   1.000  C
  H12      1.0000 0.99860  0.65440  0.86750  Biso   1.000  H
  C15      1.0000 0.82590  0.79670  0.92050  Biso   1.000  C
  C16      1.0000 0.92370  0.82230  0.81690  Biso   1.000  C
  H13      1.0000 0.97660  0.78470  0.76070  Biso   1.000  H
  C17      1.0000 0.94060  0.90410  0.79920  Biso   1.000  C
  H14      1.0000 0.00740  0.92420  0.73050  Biso   1.000  H
  C18      1.0000 0.85950  0.95780  0.88240  Biso   1.000  C
  H15      1.0000 0.86840  0.01470  0.87160  Biso   1.000  H
  C19      1.0000 0.76580  0.92430  0.98100  Biso   1.000  C
  C20      1.0000 0.59680  0.94690  0.18360  Biso   1.000  C
  H16      1.0000 0.57630  0.89170  0.20300  Biso   1.000  H
  C21      1.0000 0.68320  0.05750  0.08210  Biso   1.000  C
  H17      1.0000 0.73430  0.09350  0.02160  Biso   1.000  H
  C22      1.0000 0.59610  0.07730  0.19180  Biso   1.000  C
  H18      1.0000 0.57260  0.13080  0.22030  Biso   1.000  H
  N6       1.0000 0.68950  0.59920  0.00500  Biso   1.000  N
  N7       1.0000 0.80350  0.71290  0.94300  Biso   1.000  N
  N8       1.0000 0.74800  0.84500  0.00170  Biso   1.000  N
  N9       1.0000 0.68300  0.97400  0.07590  Biso   1.000  N
  N10      1.0000 0.54690  0.00790  0.25570  Biso   1.000  N
  C23      1.0000 0.67590  0.82180  0.49950  Biso   1.000  C
  H19      1.0000 0.58940  0.79250  0.53050  Biso   1.000  H
  C24      1.0000 0.83030  0.91860  0.44900  Biso   1.000  C
  H20      1.0000 0.87120  0.97150  0.43960  Biso   1.000  H
  C25      1.0000 0.90150  0.84990  0.40950  Biso   1.000  C
  H21      1.0000 0.99860  0.84560  0.36750  Biso   1.000  H
  C26      1.0000 0.82590  0.70330  0.42050  Biso   1.000  C
  C27      1.0000 0.92370  0.67770  0.31690  Biso   1.000  C
  H22      1.0000 0.97660  0.71530  0.26070  Biso   1.000  H
  C28      1.0000 0.94060  0.59590  0.29920  Biso   1.000  C
  H23      1.0000 0.00740  0.57580  0.23050  Biso   1.000  H
  C29      1.0000 0.85950  0.54220  0.38240  Biso   1.000  C
  H24      1.0000 0.86840  0.48530  0.37160  Biso   1.000  H
  C30      1.0000 0.76580  0.57570  0.48100  Biso   1.000  C
  C31      1.0000 0.59680  0.55310  0.68360  Biso   1.000  C
  H25      1.0000 0.57630  0.60830  0.70300  Biso   1.000  H
  C32      1.0000 0.68320  0.44250  0.58210  Biso   1.000  C
  H26      1.0000 0.73430  0.40650  0.52160  Biso   1.000  H
  C33      1.0000 0.59610  0.42270  0.69180  Biso   1.000  C
  H27      1.0000 0.57260  0.36920  0.72030  Biso   1.000  H
  N11      1.0000 0.68950  0.90080  0.50500  Biso   1.000  N
  N12      1.0000 0.80350  0.78710  0.44300  Biso   1.000  N
  N13      1.0000 0.74800  0.65500  0.50170  Biso   1.000  N
  N14      1.0000 0.68300  0.52600  0.57590  Biso   1.000  N
  N15      1.0000 0.54690  0.49210  0.75570  Biso   1.000  N
  C34      1.0000 0.32410  0.32180  0.00050  Biso   1.000  C
  H28      1.0000 0.41060  0.29250  0.96950  Biso   1.000  H
  C35      1.0000 0.16970  0.41860  0.05100  Biso   1.000  C
  H29      1.0000 0.12880  0.47150  0.06040  Biso   1.000  H
  C36      1.0000 0.09850  0.34990  0.09050  Biso   1.000  C
  H30      1.0000 0.00140  0.34560  0.13250  Biso   1.000  H
  C37      1.0000 0.17410  0.20330  0.07950  Biso   1.000  C
  C38      1.0000 0.07630  0.17770  0.18310  Biso   1.000  C
  H31      1.0000 0.02340  0.21530  0.23930  Biso   1.000  H
  C39      1.0000 0.05940  0.09590  0.20080  Biso   1.000  C
  H32      1.0000 0.99260  0.07580  0.26950  Biso   1.000  H
  C40      1.0000 0.14050  0.04220  0.11760  Biso   1.000  C
  H33      1.0000 0.13160  0.98530  0.12840  Biso   1.000  H
  C41      1.0000 0.23420  0.07570  0.01900  Biso   1.000  C
  C42      1.0000 0.40320  0.05310  0.81640  Biso   1.000  C
  H34      1.0000 0.42370  0.10830  0.79700  Biso   1.000  H
  C43      1.0000 0.31680  0.94250  0.91790  Biso   1.000  C
  H35      1.0000 0.26570  0.90650  0.97840  Biso   1.000  H
  C44      1.0000 0.40390  0.92270  0.80820  Biso   1.000  C
  H36      1.0000 0.42740  0.86920  0.77970  Biso   1.000  H
  N16      1.0000 0.31050  0.40080  0.99500  Biso   1.000  N
  N17      1.0000 0.19650  0.28710  0.05700  Biso   1.000  N
  N18      1.0000 0.25200  0.15500  0.99830  Biso   1.000  N
  N19      1.0000 0.31700  0.02600  0.92410  Biso   1.000  N
  N20      1.0000 0.45310  0.99210  0.74430  Biso   1.000  N
  Cd1      1.0000 0.50000  0.00000  0.50000  Biso   1.000  Cd
  Cd2      1.0000 0.50000  0.50000  0.00000  Biso   1.000  Cd
