data_image0
_cell_length_a       22.103
_cell_length_b       19.932
_cell_length_c       15.101
_cell_angle_alpha    90
_cell_angle_beta     130.848
_cell_angle_gamma    90

_symmetry_space_group_name_H-M    "P 1"
_symmetry_int_tables_number       1

loop_
  _symmetry_equiv_pos_as_xyz
  'x, y, z'

loop_
  _atom_site_label
  _atom_site_occupancy
  _atom_site_fract_x
  _atom_site_fract_y
  _atom_site_fract_z
  _atom_site_thermal_displace_type
  _atom_site_B_iso_or_equiv
  _atom_site_type_symbol
  C1       1.0000 0.83170  0.51210  0.88100  Biso   1.000  C
  H1       1.0000 0.86110  0.54880  0.92910  Biso   1.000  H
  C2       1.0000 0.75770  0.52100  0.77440  Biso   1.000  C
  H2       1.0000 0.73690  0.56410  0.74920  Biso   1.000  H
  C3       1.0000 0.74260  0.40790  0.73730  Biso   1.000  C
  H3       1.0000 0.71160  0.37220  0.68780  Biso   1.000  H
  C4       1.0000 0.81740  0.39610  0.84300  Biso   1.000  C
  H4       1.0000 0.83720  0.35250  0.86430  Biso   1.000  H
  C5       1.0000 0.86270  0.44820  0.91700  Biso   1.000  C
  C6       1.0000 0.94400  0.43820  0.03510  Biso   1.000  C
  C7       1.0000 0.97680  0.37440  0.07510  Biso   1.000  C
  H5       1.0000 0.94810  0.33730  0.02800  Biso   1.000  H
  C8       1.0000 0.05110  0.36570  0.18330  Biso   1.000  C
  C9       1.0000 0.09120  0.42180  0.24810  Biso   1.000  C
  H6       1.0000 0.14210  0.41810  0.32130  Biso   1.000  H
  C10      1.0000 0.05530  0.48530  0.20390  Biso   1.000  C
  C11      1.0000 0.09790  0.54740  0.27410  Biso   1.000  C
  C12      1.0000 0.16880  0.54530  0.38930  Biso   1.000  C
  H7       1.0000 0.19100  0.50410  0.42590  Biso   1.000  H
  C13      1.0000 0.20640  0.60340  0.44950  Biso   1.000  C
  H8       1.0000 0.25260  0.60030  0.52780  Biso   1.000  H
  C14      1.0000 0.11090  0.66740  0.29180  Biso   1.000  C
  H9       1.0000 0.09020  0.70950  0.25830  Biso   1.000  H
  C15      1.0000 0.06840  0.61240  0.22560  Biso   1.000  C
  H10      1.0000 0.02050  0.61740  0.14910  Biso   1.000  H
  C16      1.0000 0.08290  0.29660  0.23490  Biso   1.000  C
  C17      1.0000 0.07660  0.23940  0.17500  Biso   1.000  C
  C18      1.0000 0.09630  0.17690  0.22880  Biso   1.000  C
  H11      1.0000 0.08750  0.13860  0.18660  Biso   1.000  H
  C19      1.0000 0.12880  0.17050  0.34410  Biso   1.000  C
  C20      1.0000 0.14280  0.22900  0.40750  Biso   1.000  C
  H12      1.0000 0.16780  0.22620  0.48630  Biso   1.000  H
  C21      1.0000 0.11920  0.28980  0.35240  Biso   1.000  C
  H13      1.0000 0.12780  0.32800  0.39460  Biso   1.000  H
  N1       1.0000 0.71470  0.46880  0.70590  Biso   1.000  N
  H14      1.0000 0.66760  0.47540  0.63960  Biso   1.000  H
  N2       1.0000 0.98290  0.49320  0.09830  Biso   1.000  N
  N3       1.0000 0.18030  0.66480  0.40180  Biso   1.000  N
  O1       1.0000 0.07920  0.18170  0.02560  Biso   1.000  O
  O2       1.0000 0.96060  0.24610  0.94840  Biso   1.000  O
  O3       1.0000 0.08430  0.30270  0.03340  Biso   1.000  O
  O4       1.0000 0.08500  0.07310  0.39760  Biso   1.000  O
  O5       1.0000 0.20190  0.10100  0.53340  Biso   1.000  O
  O6       1.0000 0.15540  0.04590  0.35110  Biso   1.000  O
  S1       1.0000 0.04771  0.24310  0.03443  Biso   1.000  S
  S2       1.0000 0.15460  0.09146  0.41220  Biso   1.000  S
  C22      1.0000 0.66830  0.98790  0.11900  Biso   1.000  C
  H15      1.0000 0.63890  0.95120  0.07090  Biso   1.000  H
  C23      1.0000 0.74230  0.97900  0.22560  Biso   1.000  C
  H16      1.0000 0.76310  0.93590  0.25080  Biso   1.000  H
  C24      1.0000 0.75740  0.09210  0.26270  Biso   1.000  C
  H17      1.0000 0.78840  0.12780  0.31220  Biso   1.000  H
  C25      1.0000 0.68260  0.10390  0.15700  Biso   1.000  C
  H18      1.0000 0.66280  0.14750  0.13570  Biso   1.000  H
  C26      1.0000 0.63730  0.05180  0.08300  Biso   1.000  C
  C27      1.0000 0.55600  0.06180  0.96490  Biso   1.000  C
  C28      1.0000 0.52320  0.12560  0.92490  Biso   1.000  C
  H19      1.0000 0.55190  0.16270  0.97200  Biso   1.000  H
  C29      1.0000 0.44890  0.13430  0.81670  Biso   1.000  C
  C30      1.0000 0.40880  0.07820  0.75190  Biso   1.000  C
  H20      1.0000 0.35790  0.08190  0.67870  Biso   1.000  H
  C31      1.0000 0.44470  0.01470  0.79610  Biso   1.000  C
  C32      1.0000 0.40210  0.95260  0.72590  Biso   1.000  C
  C33      1.0000 0.33120  0.95470  0.61070  Biso   1.000  C
  H21      1.0000 0.30900  0.99590  0.57410  Biso   1.000  H
  C34      1.0000 0.29360  0.89660  0.55050  Biso   1.000  C
  H22      1.0000 0.24740  0.89970  0.47220  Biso   1.000  H
  C35      1.0000 0.38910  0.83260  0.70820  Biso   1.000  C
  H23      1.0000 0.40980  0.79050  0.74170  Biso   1.000  H
  C36      1.0000 0.43160  0.88760  0.77440  Biso   1.000  C
  H24      1.0000 0.47950  0.88260  0.85090  Biso   1.000  H
  C37      1.0000 0.41710  0.20340  0.76510  Biso   1.000  C
  C38      1.0000 0.42340  0.26060  0.82500  Biso   1.000  C
  C39      1.0000 0.40370  0.32310  0.77120  Biso   1.000  C
  H25      1.0000 0.41250  0.36140  0.81340  Biso   1.000  H
  C40      1.0000 0.37120  0.32950  0.65590  Biso   1.000  C
  C41      1.0000 0.35720  0.27100  0.59250  Biso   1.000  C
  H26      1.0000 0.33220  0.27380  0.51370  Biso   1.000  H
  C42      1.0000 0.38080  0.21020  0.64760  Biso   1.000  C
  H27      1.0000 0.37220  0.17200  0.60540  Biso   1.000  H
  N4       1.0000 0.78530  0.03120  0.29410  Biso   1.000  N
  H28      1.0000 0.83240  0.02460  0.36040  Biso   1.000  H
  N5       1.0000 0.51710  0.00680  0.90170  Biso   1.000  N
  N6       1.0000 0.31970  0.83520  0.59820  Biso   1.000  N
  O7       1.0000 0.42080  0.31830  0.97440  Biso   1.000  O
  O8       1.0000 0.53940  0.25390  0.05160  Biso   1.000  O
  O9       1.0000 0.41570  0.19730  0.96660  Biso   1.000  O
  O10      1.0000 0.41500  0.42690  0.60240  Biso   1.000  O
  O11      1.0000 0.29810  0.39900  0.46660  Biso   1.000  O
  O12      1.0000 0.34460  0.45410  0.64890  Biso   1.000  O
  S3       1.0000 0.45229  0.25690  0.96557  Biso   1.000  S
  S4       1.0000 0.34540  0.40854  0.58780  Biso   1.000  S
  Zn1      1.0000 0.25000  0.75000  0.50000  Biso   1.000  Zn
  C43      1.0000 0.33170  0.01210  0.88100  Biso   1.000  C
  H29      1.0000 0.36110  0.04880  0.92910  Biso   1.000  H
  C44      1.0000 0.25770  0.02100  0.77440  Biso   1.000  C
  H30      1.0000 0.23690  0.06410  0.74920  Biso   1.000  H
  C45      1.0000 0.24260  0.90790  0.73730  Biso   1.000  C
  H31      1.0000 0.21160  0.87220  0.68780  Biso   1.000  H
  C46      1.0000 0.31740  0.89610  0.84300  Biso   1.000  C
  H32      1.0000 0.33720  0.85250  0.86430  Biso   1.000  H
  C47      1.0000 0.36270  0.94820  0.91700  Biso   1.000  C
  C48      1.0000 0.44400  0.93820  0.03510  Biso   1.000  C
  C49      1.0000 0.47680  0.87440  0.07510  Biso   1.000  C
  H33      1.0000 0.44810  0.83730  0.02800  Biso   1.000  H
  C50      1.0000 0.55110  0.86570  0.18330  Biso   1.000  C
  C51      1.0000 0.59120  0.92180  0.24810  Biso   1.000  C
  H34      1.0000 0.64210  0.91810  0.32130  Biso   1.000  H
  C52      1.0000 0.55530  0.98530  0.20390  Biso   1.000  C
  C53      1.0000 0.59790  0.04740  0.27410  Biso   1.000  C
  C54      1.0000 0.66880  0.04530  0.38930  Biso   1.000  C
  H35      1.0000 0.69100  0.00410  0.42590  Biso   1.000  H
  C55      1.0000 0.70640  0.10340  0.44950  Biso   1.000  C
  H36      1.0000 0.75260  0.10030  0.52780  Biso   1.000  H
  C56      1.0000 0.61090  0.16740  0.29180  Biso   1.000  C
  H37      1.0000 0.59020  0.20950  0.25830  Biso   1.000  H
  C57      1.0000 0.56840  0.11240  0.22560  Biso   1.000  C
  H38      1.0000 0.52050  0.11740  0.14910  Biso   1.000  H
  C58      1.0000 0.58290  0.79660  0.23490  Biso   1.000  C
  C59      1.0000 0.57660  0.73940  0.17500  Biso   1.000  C
  C60      1.0000 0.59630  0.67690  0.22880  Biso   1.000  C
  H39      1.0000 0.58750  0.63860  0.18660  Biso   1.000  H
  C61      1.0000 0.62880  0.67050  0.34410  Biso   1.000  C
  C62      1.0000 0.64280  0.72900  0.40750  Biso   1.000  C
  H40      1.0000 0.66780  0.72620  0.48630  Biso   1.000  H
  C63      1.0000 0.61920  0.78980  0.35240  Biso   1.000  C
  H41      1.0000 0.62780  0.82800  0.39460  Biso   1.000  H
  N7       1.0000 0.21470  0.96880  0.70590  Biso   1.000  N
  H42      1.0000 0.16760  0.97540  0.63960  Biso   1.000  H
  N8       1.0000 0.48290  0.99320  0.09830  Biso   1.000  N
  N9       1.0000 0.68030  0.16480  0.40180  Biso   1.000  N
  O13      1.0000 0.57920  0.68170  0.02560  Biso   1.000  O
  O14      1.0000 0.46060  0.74610  0.94840  Biso   1.000  O
  O15      1.0000 0.58430  0.80270  0.03340  Biso   1.000  O
  O16      1.0000 0.58500  0.57310  0.39760  Biso   1.000  O
  O17      1.0000 0.70190  0.60100  0.53340  Biso   1.000  O
  O18      1.0000 0.65540  0.54590  0.35110  Biso   1.000  O
  S5       1.0000 0.54771  0.74310  0.03443  Biso   1.000  S
  S6       1.0000 0.65460  0.59146  0.41220  Biso   1.000  S
  C64      1.0000 0.16830  0.48790  0.11900  Biso   1.000  C
  H43      1.0000 0.13890  0.45120  0.07090  Biso   1.000  H
  C65      1.0000 0.24230  0.47900  0.22560  Biso   1.000  C
  H44      1.0000 0.26310  0.43590  0.25080  Biso   1.000  H
  C66      1.0000 0.25740  0.59210  0.26270  Biso   1.000  C
  H45      1.0000 0.28840  0.62780  0.31220  Biso   1.000  H
  C67      1.0000 0.18260  0.60390  0.15700  Biso   1.000  C
  H46      1.0000 0.16280  0.64750  0.13570  Biso   1.000  H
  C68      1.0000 0.13730  0.55180  0.08300  Biso   1.000  C
  C69      1.0000 0.05600  0.56180  0.96490  Biso   1.000  C
  C70      1.0000 0.02320  0.62560  0.92490  Biso   1.000  C
  H47      1.0000 0.05190  0.66270  0.97200  Biso   1.000  H
  C71      1.0000 0.94890  0.63430  0.81670  Biso   1.000  C
  C72      1.0000 0.90880  0.57820  0.75190  Biso   1.000  C
  H48      1.0000 0.85790  0.58190  0.67870  Biso   1.000  H
  C73      1.0000 0.94470  0.51470  0.79610  Biso   1.000  C
  C74      1.0000 0.90210  0.45260  0.72590  Biso   1.000  C
  C75      1.0000 0.83120  0.45470  0.61070  Biso   1.000  C
  H49      1.0000 0.80900  0.49590  0.57410  Biso   1.000  H
  C76      1.0000 0.79360  0.39660  0.55050  Biso   1.000  C
  H50      1.0000 0.74740  0.39970  0.47220  Biso   1.000  H
  C77      1.0000 0.88910  0.33260  0.70820  Biso   1.000  C
  H51      1.0000 0.90980  0.29050  0.74170  Biso   1.000  H
  C78      1.0000 0.93160  0.38760  0.77440  Biso   1.000  C
  H52      1.0000 0.97950  0.38260  0.85090  Biso   1.000  H
  C79      1.0000 0.91710  0.70340  0.76510  Biso   1.000  C
  C80      1.0000 0.92340  0.76060  0.82500  Biso   1.000  C
  C81      1.0000 0.90370  0.82310  0.77120  Biso   1.000  C
  H53      1.0000 0.91250  0.86140  0.81340  Biso   1.000  H
  C82      1.0000 0.87120  0.82950  0.65590  Biso   1.000  C
  C83      1.0000 0.85720  0.77100  0.59250  Biso   1.000  C
  H54      1.0000 0.83220  0.77380  0.51370  Biso   1.000  H
  C84      1.0000 0.88080  0.71020  0.64760  Biso   1.000  C
  H55      1.0000 0.87220  0.67200  0.60540  Biso   1.000  H
  N10      1.0000 0.28530  0.53120  0.29410  Biso   1.000  N
  H56      1.0000 0.33240  0.52460  0.36040  Biso   1.000  H
  N11      1.0000 0.01710  0.50680  0.90170  Biso   1.000  N
  N12      1.0000 0.81970  0.33520  0.59820  Biso   1.000  N
  O19      1.0000 0.92080  0.81830  0.97440  Biso   1.000  O
  O20      1.0000 0.03940  0.75390  0.05160  Biso   1.000  O
  O21      1.0000 0.91570  0.69730  0.96660  Biso   1.000  O
  O22      1.0000 0.91500  0.92690  0.60240  Biso   1.000  O
  O23      1.0000 0.79810  0.89900  0.46660  Biso   1.000  O
  O24      1.0000 0.84460  0.95410  0.64890  Biso   1.000  O
  S7       1.0000 0.95229  0.75690  0.96557  Biso   1.000  S
  S8       1.0000 0.84540  0.90854  0.58780  Biso   1.000  S
  Zn2      1.0000 0.75000  0.25000  0.50000  Biso   1.000  Zn
  C85      1.0000 0.16830  0.51210  0.61900  Biso   1.000  C
  H57      1.0000 0.13890  0.54880  0.57090  Biso   1.000  H
  C86      1.0000 0.24230  0.52100  0.72560  Biso   1.000  C
  H58      1.0000 0.26310  0.56410  0.75080  Biso   1.000  H
  C87      1.0000 0.25740  0.40790  0.76270  Biso   1.000  C
  H59      1.0000 0.28840  0.37220  0.81220  Biso   1.000  H
  C88      1.0000 0.18260  0.39610  0.65700  Biso   1.000  C
  H60      1.0000 0.16280  0.35250  0.63570  Biso   1.000  H
  C89      1.0000 0.13730  0.44820  0.58300  Biso   1.000  C
  C90      1.0000 0.05600  0.43820  0.46490  Biso   1.000  C
  C91      1.0000 0.02320  0.37440  0.42490  Biso   1.000  C
  H61      1.0000 0.05190  0.33730  0.47200  Biso   1.000  H
  C92      1.0000 0.94890  0.36570  0.31670  Biso   1.000  C
  C93      1.0000 0.90880  0.42180  0.25190  Biso   1.000  C
  H62      1.0000 0.85790  0.41810  0.17870  Biso   1.000  H
  C94      1.0000 0.94470  0.48530  0.29610  Biso   1.000  C
  C95      1.0000 0.90210  0.54740  0.22590  Biso   1.000  C
  C96      1.0000 0.83120  0.54530  0.11070  Biso   1.000  C
  H63      1.0000 0.80900  0.50410  0.07410  Biso   1.000  H
  C97      1.0000 0.79360  0.60340  0.05050  Biso   1.000  C
  H64      1.0000 0.74740  0.60030  0.97220  Biso   1.000  H
  C98      1.0000 0.88910  0.66740  0.20820  Biso   1.000  C
  H65      1.0000 0.90980  0.70950  0.24170  Biso   1.000  H
  C99      1.0000 0.93160  0.61240  0.27440  Biso   1.000  C
  H66      1.0000 0.97950  0.61740  0.35090  Biso   1.000  H
  C100     1.0000 0.91710  0.29660  0.26510  Biso   1.000  C
  C101     1.0000 0.92340  0.23940  0.32500  Biso   1.000  C
  C102     1.0000 0.90370  0.17690  0.27120  Biso   1.000  C
  H67      1.0000 0.91250  0.13860  0.31340  Biso   1.000  H
  C103     1.0000 0.87120  0.17050  0.15590  Biso   1.000  C
  C104     1.0000 0.85720  0.22900  0.09250  Biso   1.000  C
  H68      1.0000 0.83220  0.22620  0.01370  Biso   1.000  H
  C105     1.0000 0.88080  0.28980  0.14760  Biso   1.000  C
  H69      1.0000 0.87220  0.32800  0.10540  Biso   1.000  H
  N13      1.0000 0.28530  0.46880  0.79410  Biso   1.000  N
  H70      1.0000 0.33240  0.47540  0.86040  Biso   1.000  H
  N14      1.0000 0.01710  0.49320  0.40170  Biso   1.000  N
  N15      1.0000 0.81970  0.66480  0.09820  Biso   1.000  N
  O25      1.0000 0.92080  0.18170  0.47440  Biso   1.000  O
  O26      1.0000 0.03940  0.24610  0.55160  Biso   1.000  O
  O27      1.0000 0.91570  0.30270  0.46660  Biso   1.000  O
  O28      1.0000 0.91500  0.07310  0.10240  Biso   1.000  O
  O29      1.0000 0.79810  0.10100  0.96660  Biso   1.000  O
  O30      1.0000 0.84460  0.04590  0.14890  Biso   1.000  O
  S9       1.0000 0.95229  0.24310  0.46557  Biso   1.000  S
  S10      1.0000 0.84540  0.09146  0.08780  Biso   1.000  S
  C106     1.0000 0.33170  0.98790  0.38100  Biso   1.000  C
  H71      1.0000 0.36110  0.95120  0.42910  Biso   1.000  H
  C107     1.0000 0.25770  0.97900  0.27440  Biso   1.000  C
  H72      1.0000 0.23690  0.93590  0.24920  Biso   1.000  H
  C108     1.0000 0.24260  0.09210  0.23730  Biso   1.000  C
  H73      1.0000 0.21160  0.12780  0.18780  Biso   1.000  H
  C109     1.0000 0.31740  0.10390  0.34300  Biso   1.000  C
  H74      1.0000 0.33720  0.14750  0.36430  Biso   1.000  H
  C110     1.0000 0.36270  0.05180  0.41700  Biso   1.000  C
  C111     1.0000 0.44400  0.06180  0.53510  Biso   1.000  C
  C112     1.0000 0.47680  0.12560  0.57510  Biso   1.000  C
  H75      1.0000 0.44810  0.16270  0.52800  Biso   1.000  H
  C113     1.0000 0.55110  0.13430  0.68330  Biso   1.000  C
  C114     1.0000 0.59120  0.07820  0.74810  Biso   1.000  C
  H76      1.0000 0.64210  0.08190  0.82130  Biso   1.000  H
  C115     1.0000 0.55530  0.01470  0.70390  Biso   1.000  C
  C116     1.0000 0.59790  0.95260  0.77410  Biso   1.000  C
  C117     1.0000 0.66880  0.95470  0.88930  Biso   1.000  C
  H77      1.0000 0.69100  0.99590  0.92590  Biso   1.000  H
  C118     1.0000 0.70640  0.89660  0.94950  Biso   1.000  C
  H78      1.0000 0.75260  0.89970  0.02780  Biso   1.000  H
  C119     1.0000 0.61090  0.83260  0.79180  Biso   1.000  C
  H79      1.0000 0.59020  0.79050  0.75830  Biso   1.000  H
  C120     1.0000 0.56840  0.88760  0.72560  Biso   1.000  C
  H80      1.0000 0.52050  0.88260  0.64910  Biso   1.000  H
  C121     1.0000 0.58290  0.20340  0.73490  Biso   1.000  C
  C122     1.0000 0.57660  0.26060  0.67500  Biso   1.000  C
  C123     1.0000 0.59630  0.32310  0.72880  Biso   1.000  C
  H81      1.0000 0.58750  0.36140  0.68660  Biso   1.000  H
  C124     1.0000 0.62880  0.32950  0.84410  Biso   1.000  C
  C125     1.0000 0.64280  0.27100  0.90750  Biso   1.000  C
  H82      1.0000 0.66780  0.27380  0.98630  Biso   1.000  H
  C126     1.0000 0.61920  0.21020  0.85240  Biso   1.000  C
  H83      1.0000 0.62780  0.17200  0.89460  Biso   1.000  H
  N16      1.0000 0.21470  0.03120  0.20590  Biso   1.000  N
  H84      1.0000 0.16760  0.02460  0.13960  Biso   1.000  H
  N17      1.0000 0.48290  0.00680  0.59830  Biso   1.000  N
  N18      1.0000 0.68030  0.83520  0.90180  Biso   1.000  N
  O31      1.0000 0.57920  0.31830  0.52560  Biso   1.000  O
  O32      1.0000 0.46060  0.25390  0.44840  Biso   1.000  O
  O33      1.0000 0.58430  0.19730  0.53340  Biso   1.000  O
  O34      1.0000 0.58500  0.42690  0.89760  Biso   1.000  O
  O35      1.0000 0.70190  0.39900  0.03340  Biso   1.000  O
  O36      1.0000 0.65540  0.45410  0.85110  Biso   1.000  O
  S11      1.0000 0.54771  0.25690  0.53443  Biso   1.000  S
  S12      1.0000 0.65460  0.40854  0.91220  Biso   1.000  S
  Zn3      1.0000 0.75000  0.75000  0.00000  Biso   1.000  Zn
  C127     1.0000 0.66830  0.01210  0.61900  Biso   1.000  C
  H85      1.0000 0.63890  0.04880  0.57090  Biso   1.000  H
  C128     1.0000 0.74230  0.02100  0.72560  Biso   1.000  C
  H86      1.0000 0.76310  0.06410  0.75080  Biso   1.000  H
  C129     1.0000 0.75740  0.90790  0.76270  Biso   1.000  C
  H87      1.0000 0.78840  0.87220  0.81220  Biso   1.000  H
  C130     1.0000 0.68260  0.89610  0.65700  Biso   1.000  C
  H88      1.0000 0.66280  0.85250  0.63570  Biso   1.000  H
  C131     1.0000 0.63730  0.94820  0.58300  Biso   1.000  C
  C132     1.0000 0.55600  0.93820  0.46490  Biso   1.000  C
  C133     1.0000 0.52320  0.87440  0.42490  Biso   1.000  C
  H89      1.0000 0.55190  0.83730  0.47200  Biso   1.000  H
  C134     1.0000 0.44890  0.86570  0.31670  Biso   1.000  C
  C135     1.0000 0.40880  0.92180  0.25190  Biso   1.000  C
  H90      1.0000 0.35790  0.91810  0.17870  Biso   1.000  H
  C136     1.0000 0.44470  0.98530  0.29610  Biso   1.000  C
  C137     1.0000 0.40210  0.04740  0.22590  Biso   1.000  C
  C138     1.0000 0.33120  0.04530  0.11070  Biso   1.000  C
  H91      1.0000 0.30900  0.00410  0.07410  Biso   1.000  H
  C139     1.0000 0.29360  0.10340  0.05050  Biso   1.000  C
  H92      1.0000 0.24740  0.10030  0.97220  Biso   1.000  H
  C140     1.0000 0.38910  0.16740  0.20820  Biso   1.000  C
  H93      1.0000 0.40980  0.20950  0.24170  Biso   1.000  H
  C141     1.0000 0.43160  0.11240  0.27440  Biso   1.000  C
  H94      1.0000 0.47950  0.11740  0.35090  Biso   1.000  H
  C142     1.0000 0.41710  0.79660  0.26510  Biso   1.000  C
  C143     1.0000 0.42340  0.73940  0.32500  Biso   1.000  C
  C144     1.0000 0.40370  0.67690  0.27120  Biso   1.000  C
  H95      1.0000 0.41250  0.63860  0.31340  Biso   1.000  H
  C145     1.0000 0.37120  0.67050  0.15590  Biso   1.000  C
  C146     1.0000 0.35720  0.72900  0.09250  Biso   1.000  C
  H96      1.0000 0.33220  0.72620  0.01370  Biso   1.000  H
  C147     1.0000 0.38080  0.78980  0.14760  Biso   1.000  C
  H97      1.0000 0.37220  0.82800  0.10540  Biso   1.000  H
  N19      1.0000 0.78530  0.96880  0.79410  Biso   1.000  N
  H98      1.0000 0.83240  0.97540  0.86040  Biso   1.000  H
  N20      1.0000 0.51710  0.99320  0.40170  Biso   1.000  N
  N21      1.0000 0.31970  0.16480  0.09820  Biso   1.000  N
  O37      1.0000 0.42080  0.68170  0.47440  Biso   1.000  O
  O38      1.0000 0.53940  0.74610  0.55160  Biso   1.000  O
  O39      1.0000 0.41570  0.80270  0.46660  Biso   1.000  O
  O40      1.0000 0.41500  0.57310  0.10240  Biso   1.000  O
  O41      1.0000 0.29810  0.60100  0.96660  Biso   1.000  O
  O42      1.0000 0.34460  0.54590  0.14890  Biso   1.000  O
  S13      1.0000 0.45229  0.74310  0.46557  Biso   1.000  S
  S14      1.0000 0.34540  0.59146  0.08780  Biso   1.000  S
  C148     1.0000 0.83170  0.48790  0.38100  Biso   1.000  C
  H99      1.0000 0.86110  0.45120  0.42910  Biso   1.000  H
  C149     1.0000 0.75770  0.47900  0.27440  Biso   1.000  C
  H100     1.0000 0.73690  0.43590  0.24920  Biso   1.000  H
  C150     1.0000 0.74260  0.59210  0.23730  Biso   1.000  C
  H101     1.0000 0.71160  0.62780  0.18780  Biso   1.000  H
  C151     1.0000 0.81740  0.60390  0.34300  Biso   1.000  C
  H102     1.0000 0.83720  0.64750  0.36430  Biso   1.000  H
  C152     1.0000 0.86270  0.55180  0.41700  Biso   1.000  C
  C153     1.0000 0.94400  0.56180  0.53510  Biso   1.000  C
  C154     1.0000 0.97680  0.62560  0.57510  Biso   1.000  C
  H103     1.0000 0.94810  0.66270  0.52800  Biso   1.000  H
  C155     1.0000 0.05110  0.63430  0.68330  Biso   1.000  C
  C156     1.0000 0.09120  0.57820  0.74810  Biso   1.000  C
  H104     1.0000 0.14210  0.58190  0.82130  Biso   1.000  H
  C157     1.0000 0.05530  0.51470  0.70390  Biso   1.000  C
  C158     1.0000 0.09790  0.45260  0.77410  Biso   1.000  C
  C159     1.0000 0.16880  0.45470  0.88930  Biso   1.000  C
  H105     1.0000 0.19100  0.49590  0.92590  Biso   1.000  H
  C160     1.0000 0.20640  0.39660  0.94950  Biso   1.000  C
  H106     1.0000 0.25260  0.39970  0.02780  Biso   1.000  H
  C161     1.0000 0.11090  0.33260  0.79180  Biso   1.000  C
  H107     1.0000 0.09020  0.29050  0.75830  Biso   1.000  H
  C162     1.0000 0.06840  0.38760  0.72560  Biso   1.000  C
  H108     1.0000 0.02050  0.38260  0.64910  Biso   1.000  H
  C163     1.0000 0.08290  0.70340  0.73490  Biso   1.000  C
  C164     1.0000 0.07660  0.76060  0.67500  Biso   1.000  C
  C165     1.0000 0.09630  0.82310  0.72880  Biso   1.000  C
  H109     1.0000 0.08750  0.86140  0.68660  Biso   1.000  H
  C166     1.0000 0.12880  0.82950  0.84410  Biso   1.000  C
  C167     1.0000 0.14280  0.77100  0.90750  Biso   1.000  C
  H110     1.0000 0.16780  0.77380  0.98630  Biso   1.000  H
  C168     1.0000 0.11920  0.71020  0.85240  Biso   1.000  C
  H111     1.0000 0.12780  0.67200  0.89460  Biso   1.000  H
  N22      1.0000 0.71470  0.53120  0.20590  Biso   1.000  N
  H112     1.0000 0.66760  0.52460  0.13960  Biso   1.000  H
  N23      1.0000 0.98290  0.50680  0.59830  Biso   1.000  N
  N24      1.0000 0.18030  0.33520  0.90180  Biso   1.000  N
  O43      1.0000 0.07920  0.81830  0.52560  Biso   1.000  O
  O44      1.0000 0.96060  0.75390  0.44840  Biso   1.000  O
  O45      1.0000 0.08430  0.69730  0.53340  Biso   1.000  O
  O46      1.0000 0.08500  0.92690  0.89760  Biso   1.000  O
  O47      1.0000 0.20190  0.89900  0.03340  Biso   1.000  O
  O48      1.0000 0.15540  0.95410  0.85110  Biso   1.000  O
  S15      1.0000 0.04771  0.75690  0.53443  Biso   1.000  S
  S16      1.0000 0.15460  0.90854  0.91220  Biso   1.000  S
  Zn4      1.0000 0.25000  0.25000  0.00000  Biso   1.000  Zn
