data_image0
_cell_length_a       10.9419
_cell_length_b       11.4047
_cell_length_c       14.4901
_cell_angle_alpha    97.473
_cell_angle_beta     107.198
_cell_angle_gamma    105.458

_symmetry_space_group_name_H-M    "P 1"
_symmetry_int_tables_number       1

loop_
  _symmetry_equiv_pos_as_xyz
  'x, y, z'

loop_
  _atom_site_label
  _atom_site_occupancy
  _atom_site_fract_x
  _atom_site_fract_y
  _atom_site_fract_z
  _atom_site_thermal_displace_type
  _atom_site_B_iso_or_equiv
  _atom_site_type_symbol
  Cu1      1.0000 0.45012  0.58711  0.44419  Biso   1.000  Cu
  Cu2      1.0000 0.21455  0.37504  0.49562  Biso   1.000  Cu
  Cu3      1.0000 0.86683  0.79382  0.85658  Biso   1.000  Cu
  O1       1.0000 0.52059  0.75050  0.42520  Biso   1.000  O
  O2       1.0000 0.73094  0.75220  0.43412  Biso   1.000  O
  O3       1.0000 0.02685  0.30545  0.48296  Biso   1.000  O
  O4       1.0000 0.03042  0.14340  0.38026  Biso   1.000  O
  O5       1.0000 0.52554  0.29240  0.37656  Biso   1.000  O
  O6       1.0000 0.37167  0.10590  0.34600  Biso   1.000  O
  O7       1.0000 0.04792  0.82910  0.84674  Biso   1.000  O
  O8       1.0000 0.09704  0.65230  0.85808  Biso   1.000  O
  O9       1.0000 0.55700  0.64910  0.85990  Biso   1.000  O
  O10      1.0000 0.70381  0.82800  0.86342  Biso   1.000  O
  O11      1.0000 0.61040  0.21090  0.89010  Biso   1.000  O
  H1       1.0000 0.64400  0.29260  0.91500  Biso   1.000  H
  O12      1.0000 0.41520  0.22610  0.89900  Biso   1.000  O
  O13      1.0000 0.38002  0.41997  0.46668  Biso   1.000  O
  H2       1.0000 0.37200  0.37200  0.41400  Biso   1.000  H
  N1       1.0000 0.26010  0.58840  0.39888  Biso   1.000  N
  N2       1.0000 0.16180  0.50070  0.41794  Biso   1.000  N
  N3       1.0000 0.06640  0.61190  0.32735  Biso   1.000  N
  N4       1.0000 0.94350  0.82860  0.00095  Biso   1.000  N
  N5       1.0000 0.95410  0.85960  0.15614  Biso   1.000  N
  C1       1.0000 0.96690  0.65990  0.26690  Biso   1.000  C
  H3       1.0000 0.87580  0.60740  0.25870  Biso   1.000  H
  H4       1.0000 0.97450  0.65620  0.20090  Biso   1.000  H
  C2       1.0000 0.98800  0.79380  0.31450  Biso   1.000  C
  H5       1.0000 0.95800  0.79440  0.37190  Biso   1.000  H
  H6       1.0000 0.08460  0.84110  0.33850  Biso   1.000  H
  C3       1.0000 0.91160  0.85740  0.24330  Biso   1.000  C
  H7       1.0000 0.81450  0.81280  0.22170  Biso   1.000  H
  H8       1.0000 0.92810  0.94310  0.27740  Biso   1.000  H
  C4       1.0000 0.20060  0.65320  0.34540  Biso   1.000  C
  H9       1.0000 0.24470  0.71960  0.32240  Biso   1.000  H
  C5       1.0000 0.04710  0.51750  0.37390  Biso   1.000  C
  H10      1.0000 0.96280  0.47020  0.37460  Biso   1.000  H
  C6       1.0000 0.87460  0.81120  0.06180  Biso   1.000  C
  H11      1.0000 0.78110  0.76980  0.04110  Biso   1.000  H
  C7       1.0000 0.07520  0.89270  0.06120  Biso   1.000  C
  H12      1.0000 0.14820  0.91890  0.03890  Biso   1.000  H
  C8       1.0000 0.08350  0.91210  0.15670  Biso   1.000  C
  H13      1.0000 0.16170  0.95320  0.21260  Biso   1.000  H
  C9       1.0000 0.66970  0.93320  0.41390  Biso   1.000  C
  C10      1.0000 0.80050  0.00070  0.42250  Biso   1.000  C
  H14      1.0000 0.86730  0.96160  0.43110  Biso   1.000  H
  C11      1.0000 0.83200  0.12560  0.41850  Biso   1.000  C
  C12      1.0000 0.73360  0.18370  0.40550  Biso   1.000  C
  H15      1.0000 0.75660  0.26930  0.40590  Biso   1.000  H
  C13      1.0000 0.60110  0.11590  0.39190  Biso   1.000  C
  C14      1.0000 0.57020  0.99060  0.39750  Biso   1.000  C
  H16      1.0000 0.48140  0.94470  0.39020  Biso   1.000  H
  C15      1.0000 0.63870  0.80140  0.42530  Biso   1.000  C
  C16      1.0000 0.97360  0.19570  0.42640  Biso   1.000  C
  C17      1.0000 0.49150  0.17600  0.37020  Biso   1.000  C
  C18      1.0000 0.26780  0.83320  0.85760  Biso   1.000  C
  C19      1.0000 0.35850  0.76790  0.85540  Biso   1.000  C
  H17      1.0000 0.33120  0.68120  0.85030  Biso   1.000  H
  C20      1.0000 0.48970  0.83080  0.86080  Biso   1.000  C
  C21      1.0000 0.52910  0.95850  0.86760  Biso   1.000  C
  H18      1.0000 0.61660  0.00070  0.86970  Biso   1.000  H
  C22      1.0000 0.44010  0.02450  0.87150  Biso   1.000  C
  C23      1.0000 0.30930  0.96120  0.86620  Biso   1.000  C
  H19      1.0000 0.24880  0.00570  0.86840  Biso   1.000  H
  C24      1.0000 0.12670  0.76450  0.85380  Biso   1.000  C
  C25      1.0000 0.58960  0.76180  0.86110  Biso   1.000  C
  C26      1.0000 0.48530  0.16340  0.88730  Biso   1.000  C
  Cu4      1.0000 0.54988  0.41289  0.55581  Biso   1.000  Cu
  Cu5      1.0000 0.78545  0.62496  0.50438  Biso   1.000  Cu
  Cu6      1.0000 0.13317  0.20618  0.14342  Biso   1.000  Cu
  O14      1.0000 0.47941  0.24950  0.57480  Biso   1.000  O
  O15      1.0000 0.26906  0.24780  0.56588  Biso   1.000  O
  O16      1.0000 0.97315  0.69455  0.51704  Biso   1.000  O
  O17      1.0000 0.96958  0.85660  0.61974  Biso   1.000  O
  O18      1.0000 0.47446  0.70760  0.62344  Biso   1.000  O
  O19      1.0000 0.62833  0.89410  0.65400  Biso   1.000  O
  O20      1.0000 0.95208  0.17090  0.15326  Biso   1.000  O
  O21      1.0000 0.90296  0.34770  0.14192  Biso   1.000  O
  O22      1.0000 0.44300  0.35090  0.14010  Biso   1.000  O
  O23      1.0000 0.29619  0.17200  0.13658  Biso   1.000  O
  O24      1.0000 0.38960  0.78910  0.10990  Biso   1.000  O
  H20      1.0000 0.35600  0.70740  0.08500  Biso   1.000  H
  O25      1.0000 0.58480  0.77390  0.10100  Biso   1.000  O
  O26      1.0000 0.61998  0.58003  0.53332  Biso   1.000  O
  H21      1.0000 0.62800  0.62800  0.58600  Biso   1.000  H
  N6       1.0000 0.73990  0.41160  0.60112  Biso   1.000  N
  N7       1.0000 0.83820  0.49930  0.58206  Biso   1.000  N
  N8       1.0000 0.93360  0.38810  0.67265  Biso   1.000  N
  N9       1.0000 0.05650  0.17140  0.99905  Biso   1.000  N
  N10      1.0000 0.04590  0.14040  0.84386  Biso   1.000  N
  C27      1.0000 0.03310  0.34010  0.73310  Biso   1.000  C
  H22      1.0000 0.12420  0.39260  0.74130  Biso   1.000  H
  H23      1.0000 0.02550  0.34380  0.79910  Biso   1.000  H
  C28      1.0000 0.01200  0.20620  0.68550  Biso   1.000  C
  H24      1.0000 0.04200  0.20560  0.62810  Biso   1.000  H
  H25      1.0000 0.91540  0.15890  0.66150  Biso   1.000  H
  C29      1.0000 0.08840  0.14260  0.75670  Biso   1.000  C
  H26      1.0000 0.18550  0.18720  0.77830  Biso   1.000  H
  H27      1.0000 0.07190  0.05690  0.72260  Biso   1.000  H
  C30      1.0000 0.79940  0.34680  0.65460  Biso   1.000  C
  H28      1.0000 0.75530  0.28040  0.67760  Biso   1.000  H
  C31      1.0000 0.95290  0.48250  0.62610  Biso   1.000  C
  H29      1.0000 0.03720  0.52980  0.62540  Biso   1.000  H
  C32      1.0000 0.12540  0.18880  0.93820  Biso   1.000  C
  H30      1.0000 0.21890  0.23020  0.95890  Biso   1.000  H
  C33      1.0000 0.92480  0.10730  0.93880  Biso   1.000  C
  H31      1.0000 0.85180  0.08110  0.96110  Biso   1.000  H
  C34      1.0000 0.91650  0.08790  0.84330  Biso   1.000  C
  H32      1.0000 0.83830  0.04680  0.78740  Biso   1.000  H
  C35      1.0000 0.33030  0.06680  0.58610  Biso   1.000  C
  C36      1.0000 0.19950  0.99930  0.57750  Biso   1.000  C
  H33      1.0000 0.13270  0.03840  0.56890  Biso   1.000  H
  C37      1.0000 0.16800  0.87440  0.58150  Biso   1.000  C
  C38      1.0000 0.26640  0.81630  0.59450  Biso   1.000  C
  H34      1.0000 0.24340  0.73070  0.59410  Biso   1.000  H
  C39      1.0000 0.39890  0.88410  0.60810  Biso   1.000  C
  C40      1.0000 0.42980  0.00940  0.60250  Biso   1.000  C
  H35      1.0000 0.51860  0.05530  0.60980  Biso   1.000  H
  C41      1.0000 0.36130  0.19860  0.57470  Biso   1.000  C
  C42      1.0000 0.02640  0.80430  0.57360  Biso   1.000  C
  C43      1.0000 0.50850  0.82400  0.62980  Biso   1.000  C
  C44      1.0000 0.73220  0.16680  0.14240  Biso   1.000  C
  C45      1.0000 0.64150  0.23210  0.14460  Biso   1.000  C
  H36      1.0000 0.66880  0.31880  0.14970  Biso   1.000  H
  C46      1.0000 0.51030  0.16920  0.13920  Biso   1.000  C
  C47      1.0000 0.47090  0.04150  0.13240  Biso   1.000  C
  H37      1.0000 0.38340  0.99930  0.13030  Biso   1.000  H
  C48      1.0000 0.55990  0.97550  0.12850  Biso   1.000  C
  C49      1.0000 0.69070  0.03880  0.13380  Biso   1.000  C
  H38      1.0000 0.75120  0.99430  0.13160  Biso   1.000  H
  C50      1.0000 0.87330  0.23550  0.14620  Biso   1.000  C
  C51      1.0000 0.41040  0.23820  0.13890  Biso   1.000  C
  C52      1.0000 0.51470  0.83660  0.11270  Biso   1.000  C
