data_image0
_cell_length_a       16.7488
_cell_length_b       12.8214
_cell_length_c       30.458
_cell_angle_alpha    90
_cell_angle_beta     116.084
_cell_angle_gamma    90

_symmetry_space_group_name_H-M    "P 1"
_symmetry_int_tables_number       1

loop_
  _symmetry_equiv_pos_as_xyz
  'x, y, z'

loop_
  _atom_site_label
  _atom_site_occupancy
  _atom_site_fract_x
  _atom_site_fract_y
  _atom_site_fract_z
  _atom_site_thermal_displace_type
  _atom_site_B_iso_or_equiv
  _atom_site_type_symbol
  Mn1      1.0000 0.61678  0.96491  0.63630  Biso   1.000  Mn
  Mn2      1.0000 0.84464  0.06531  0.20871  Biso   1.000  Mn
  C1       1.0000 0.44480  0.08920  0.57580  Biso   1.000  C
  C2       1.0000 0.38730  0.15720  0.58810  Biso   1.000  C
  C3       1.0000 0.39920  0.16550  0.63550  Biso   1.000  C
  H1       1.0000 0.44360  0.12740  0.66020  Biso   1.000  H
  C4       1.0000 0.34460  0.23090  0.64630  Biso   1.000  C
  H2       1.0000 0.35300  0.23660  0.67850  Biso   1.000  H
  C5       1.0000 0.27880  0.28710  0.61090  Biso   1.000  C
  H3       1.0000 0.24330  0.33210  0.61860  Biso   1.000  H
  C6       1.0000 0.26570  0.27540  0.56220  Biso   1.000  C
  C7       1.0000 0.32020  0.21230  0.55160  Biso   1.000  C
  H4       1.0000 0.31220  0.20630  0.51950  Biso   1.000  H
  C8       1.0000 0.13800  0.38610  0.53170  Biso   1.000  C
  H5       1.0000 0.16710  0.43820  0.55680  Biso   1.000  H
  H6       1.0000 0.10260  0.34130  0.54190  Biso   1.000  H
  C9       1.0000 0.28550  0.02990  0.41360  Biso   1.000  C
  C10      1.0000 0.22480  0.04380  0.43730  Biso   1.000  C
  C11      1.0000 0.23280  0.98030  0.47530  Biso   1.000  C
  H7       1.0000 0.27760  0.93050  0.48740  Biso   1.000  H
  C12      1.0000 0.17310  0.99150  0.49530  Biso   1.000  C
  H8       1.0000 0.17640  0.94700  0.52010  Biso   1.000  H
  C13      1.0000 0.10920  0.06790  0.47850  Biso   1.000  C
  H9       1.0000 0.06850  0.07360  0.49160  Biso   1.000  H
  C14      1.0000 0.10480  0.13540  0.44290  Biso   1.000  C
  C15      1.0000 0.16210  0.12000  0.42200  Biso   1.000  C
  H10      1.0000 0.15760  0.16330  0.39660  Biso   1.000  H
  C16      1.0000 0.00780  0.26240  0.45290  Biso   1.000  C
  H11      1.0000 0.03960  0.24250  0.48700  Biso   1.000  H
  H12      1.0000 0.94630  0.24070  0.44080  Biso   1.000  H
  C17      1.0000 0.67870  0.13040  0.22740  Biso   1.000  C
  C18      1.0000 0.68220  0.17120  0.27460  Biso   1.000  C
  C19      1.0000 0.62470  0.12260  0.29470  Biso   1.000  C
  H13      1.0000 0.58290  0.07220  0.27710  Biso   1.000  H
  C20      1.0000 0.63600  0.15660  0.34270  Biso   1.000  C
  H14      1.0000 0.60050  0.12850  0.35610  Biso   1.000  H
  C21      1.0000 0.69940  0.23070  0.36820  Biso   1.000  C
  H15      1.0000 0.70900  0.24980  0.39960  Biso   1.000  H
  C22      1.0000 0.75240  0.27980  0.34520  Biso   1.000  C
  C23      1.0000 0.74630  0.24430  0.30020  Biso   1.000  C
  H16      1.0000 0.78460  0.26950  0.28800  Biso   1.000  H
  C24      1.0000 0.88980  0.36200  0.36350  Biso   1.000  C
  H17      1.0000 0.87220  0.39500  0.33190  Biso   1.000  H
  H18      1.0000 0.91420  0.29380  0.36250  Biso   1.000  H
  C25      1.0000 0.73660  0.86640  0.20710  Biso   1.000  C
  C26      1.0000 0.72440  0.76970  0.23160  Biso   1.000  C
  C27      1.0000 0.64500  0.71540  0.21060  Biso   1.000  C
  H19      1.0000 0.59970  0.74050  0.18180  Biso   1.000  H
  C28      1.0000 0.63070  0.62750  0.23030  Biso   1.000  C
  H20      1.0000 0.57580  0.59420  0.21610  Biso   1.000  H
  C29      1.0000 0.69880  0.58780  0.27190  Biso   1.000  C
  H21      1.0000 0.69180  0.52460  0.28480  Biso   1.000  H
  C30      1.0000 0.77740  0.64260  0.29430  Biso   1.000  C
  C31      1.0000 0.79250  0.73230  0.27480  Biso   1.000  C
  H22      1.0000 0.84660  0.76720  0.28990  Biso   1.000  H
  C32      1.0000 0.91390  0.57740  0.34190  Biso   1.000  C
  H23      1.0000 0.94340  0.63760  0.33640  Biso   1.000  H
  H24      1.0000 0.90530  0.52580  0.31700  Biso   1.000  H
  C33      1.0000 0.99570  0.02160  0.31200  Biso   1.000  C
  C34      1.0000 0.95910  0.97630  0.34480  Biso   1.000  C
  C35      1.0000 0.88200  0.01390  0.34390  Biso   1.000  C
  H25      1.0000 0.85150  0.06830  0.32310  Biso   1.000  H
  C36      1.0000 0.84970  0.96910  0.37470  Biso   1.000  C
  H26      1.0000 0.79880  0.99610  0.37550  Biso   1.000  H
  C37      1.0000 0.89150  0.88740  0.40310  Biso   1.000  C
  H27      1.0000 0.86890  0.85800  0.42330  Biso   1.000  H
  C38      1.0000 0.96600  0.84750  0.40280  Biso   1.000  C
  C39      1.0000 0.00120  0.89360  0.37460  Biso   1.000  C
  H28      1.0000 0.05410  0.86860  0.37560  Biso   1.000  H
  C40      1.0000 0.05770  0.69590  0.42100  Biso   1.000  C
  H29      1.0000 0.11950  0.71320  0.44150  Biso   1.000  H
  H30      1.0000 0.04640  0.70400  0.38710  Biso   1.000  H
  C41      1.0000 0.49820  0.80640  0.56460  Biso   1.000  C
  C42      1.0000 0.45020  0.71320  0.56990  Biso   1.000  C
  C43      1.0000 0.49170  0.64910  0.60860  Biso   1.000  C
  H31      1.0000 0.54880  0.66540  0.63200  Biso   1.000  H
  C44      1.0000 0.45060  0.55920  0.61410  Biso   1.000  C
  H32      1.0000 0.48000  0.51560  0.64080  Biso   1.000  H
  C45      1.0000 0.36900  0.53580  0.58080  Biso   1.000  C
  H33      1.0000 0.34110  0.47660  0.58500  Biso   1.000  H
  C46      1.0000 0.32520  0.59690  0.54060  Biso   1.000  C
  C47      1.0000 0.36450  0.68640  0.53460  Biso   1.000  C
  H34      1.0000 0.33480  0.72860  0.50740  Biso   1.000  H
  C48      1.0000 0.16960  0.60260  0.51170  Biso   1.000  C
  H35      1.0000 0.15870  0.67690  0.50630  Biso   1.000  H
  H36      1.0000 0.17950  0.58590  0.54470  Biso   1.000  H
  C49      1.0000 0.08020  0.43770  0.48370  Biso   1.000  C
  C50      1.0000 0.01360  0.37770  0.44710  Biso   1.000  C
  C51      1.0000 0.95850  0.42680  0.40250  Biso   1.000  C
  C52      1.0000 0.97240  0.53000  0.39490  Biso   1.000  C
  C53      1.0000 0.04050  0.58630  0.43000  Biso   1.000  C
  C54      1.0000 0.09280  0.53990  0.47450  Biso   1.000  C
  O1       1.0000 0.44650  0.09910  0.53522  Biso   1.000  O
  O2       1.0000 0.48980  0.02150  0.60690  Biso   1.000  O
  O3       1.0000 0.20130  0.32700  0.52373  Biso   1.000  O
  O4       1.0000 0.35930  0.98800  0.43483  Biso   1.000  O
  O5       1.0000 0.25960  0.06760  0.37077  Biso   1.000  O
  O6       1.0000 0.04780  0.21580  0.42473  Biso   1.000  O
  O7       1.0000 0.74540  0.14350  0.22100  Biso   1.000  O
  O8       1.0000 0.61080  0.08390  0.19990  Biso   1.000  O
  O9       1.0000 0.81540  0.35100  0.37310  Biso   1.000  O
  O10      1.0000 0.80740  0.91690  0.22673  Biso   1.000  O
  O11      1.0000 0.67230  0.89020  0.16750  Biso   1.000  O
  O12      1.0000 0.84200  0.60310  0.34020  Biso   1.000  O
  O13      1.0000 0.06910  0.99120  0.31633  Biso   1.000  O
  O14      1.0000 0.94860  0.09100  0.28233  Biso   1.000  O
  O15      1.0000 0.00240  0.76320  0.43149  Biso   1.000  O
  O16      1.0000 0.57290  0.82380  0.59920  Biso   1.000  O
  O17      1.0000 0.24080  0.57240  0.50350  Biso   1.000  O
  O18      1.0000 0.45850  0.85800  0.52450  Biso   1.000  O
  H37      1.0000 0.47700  0.89300  0.50500  Biso   1.000  H
  Mn3      1.0000 0.38322  0.96491  0.86370  Biso   1.000  Mn
  Mn4      1.0000 0.15536  0.06531  0.29129  Biso   1.000  Mn
  C55      1.0000 0.55520  0.08920  0.92420  Biso   1.000  C
  C56      1.0000 0.61270  0.15720  0.91190  Biso   1.000  C
  C57      1.0000 0.60080  0.16550  0.86450  Biso   1.000  C
  H38      1.0000 0.55640  0.12740  0.83980  Biso   1.000  H
  C58      1.0000 0.65540  0.23090  0.85370  Biso   1.000  C
  H39      1.0000 0.64700  0.23660  0.82150  Biso   1.000  H
  C59      1.0000 0.72120  0.28710  0.88910  Biso   1.000  C
  H40      1.0000 0.75670  0.33210  0.88140  Biso   1.000  H
  C60      1.0000 0.73430  0.27540  0.93780  Biso   1.000  C
  C61      1.0000 0.67980  0.21230  0.94840  Biso   1.000  C
  H41      1.0000 0.68780  0.20630  0.98050  Biso   1.000  H
  C62      1.0000 0.86200  0.38610  0.96830  Biso   1.000  C
  H42      1.0000 0.83290  0.43820  0.94320  Biso   1.000  H
  H43      1.0000 0.89740  0.34130  0.95810  Biso   1.000  H
  C63      1.0000 0.71450  0.02990  0.08640  Biso   1.000  C
  C64      1.0000 0.77520  0.04380  0.06270  Biso   1.000  C
  C65      1.0000 0.76720  0.98030  0.02470  Biso   1.000  C
  H44      1.0000 0.72240  0.93050  0.01260  Biso   1.000  H
  C66      1.0000 0.82690  0.99150  0.00470  Biso   1.000  C
  H45      1.0000 0.82360  0.94700  0.97990  Biso   1.000  H
  C67      1.0000 0.89080  0.06790  0.02150  Biso   1.000  C
  H46      1.0000 0.93150  0.07360  0.00840  Biso   1.000  H
  C68      1.0000 0.89520  0.13540  0.05710  Biso   1.000  C
  C69      1.0000 0.83790  0.12000  0.07800  Biso   1.000  C
  H47      1.0000 0.84240  0.16330  0.10340  Biso   1.000  H
  C70      1.0000 0.99220  0.26240  0.04710  Biso   1.000  C
  H48      1.0000 0.96040  0.24250  0.01300  Biso   1.000  H
  H49      1.0000 0.05370  0.24070  0.05920  Biso   1.000  H
  C71      1.0000 0.32130  0.13040  0.27260  Biso   1.000  C
  C72      1.0000 0.31780  0.17120  0.22540  Biso   1.000  C
  C73      1.0000 0.37530  0.12260  0.20530  Biso   1.000  C
  H50      1.0000 0.41710  0.07220  0.22290  Biso   1.000  H
  C74      1.0000 0.36400  0.15660  0.15730  Biso   1.000  C
  H51      1.0000 0.39950  0.12850  0.14390  Biso   1.000  H
  C75      1.0000 0.30060  0.23070  0.13180  Biso   1.000  C
  H52      1.0000 0.29100  0.24980  0.10040  Biso   1.000  H
  C76      1.0000 0.24760  0.27980  0.15480  Biso   1.000  C
  C77      1.0000 0.25370  0.24430  0.19980  Biso   1.000  C
  H53      1.0000 0.21540  0.26950  0.21200  Biso   1.000  H
  C78      1.0000 0.11020  0.36200  0.13650  Biso   1.000  C
  H54      1.0000 0.12780  0.39500  0.16810  Biso   1.000  H
  H55      1.0000 0.08580  0.29380  0.13750  Biso   1.000  H
  C79      1.0000 0.26340  0.86640  0.29290  Biso   1.000  C
  C80      1.0000 0.27560  0.76970  0.26840  Biso   1.000  C
  C81      1.0000 0.35500  0.71540  0.28940  Biso   1.000  C
  H56      1.0000 0.40030  0.74050  0.31820  Biso   1.000  H
  C82      1.0000 0.36930  0.62750  0.26970  Biso   1.000  C
  H57      1.0000 0.42420  0.59420  0.28390  Biso   1.000  H
  C83      1.0000 0.30120  0.58780  0.22810  Biso   1.000  C
  H58      1.0000 0.30820  0.52460  0.21520  Biso   1.000  H
  C84      1.0000 0.22260  0.64260  0.20570  Biso   1.000  C
  C85      1.0000 0.20750  0.73230  0.22520  Biso   1.000  C
  H59      1.0000 0.15340  0.76720  0.21010  Biso   1.000  H
  C86      1.0000 0.08610  0.57740  0.15810  Biso   1.000  C
  H60      1.0000 0.05660  0.63760  0.16360  Biso   1.000  H
  H61      1.0000 0.09470  0.52580  0.18300  Biso   1.000  H
  C87      1.0000 0.00430  0.02160  0.18800  Biso   1.000  C
  C88      1.0000 0.04090  0.97630  0.15520  Biso   1.000  C
  C89      1.0000 0.11800  0.01390  0.15610  Biso   1.000  C
  H62      1.0000 0.14850  0.06830  0.17690  Biso   1.000  H
  C90      1.0000 0.15030  0.96910  0.12530  Biso   1.000  C
  H63      1.0000 0.20120  0.99610  0.12450  Biso   1.000  H
  C91      1.0000 0.10850  0.88740  0.09690  Biso   1.000  C
  H64      1.0000 0.13110  0.85800  0.07670  Biso   1.000  H
  C92      1.0000 0.03400  0.84750  0.09720  Biso   1.000  C
  C93      1.0000 0.99880  0.89360  0.12540  Biso   1.000  C
  H65      1.0000 0.94590  0.86860  0.12440  Biso   1.000  H
  C94      1.0000 0.94230  0.69590  0.07900  Biso   1.000  C
  H66      1.0000 0.88050  0.71320  0.05850  Biso   1.000  H
  H67      1.0000 0.95360  0.70400  0.11290  Biso   1.000  H
  C95      1.0000 0.50180  0.80640  0.93540  Biso   1.000  C
  C96      1.0000 0.54980  0.71320  0.93010  Biso   1.000  C
  C97      1.0000 0.50830  0.64910  0.89140  Biso   1.000  C
  H68      1.0000 0.45120  0.66540  0.86800  Biso   1.000  H
  C98      1.0000 0.54940  0.55920  0.88590  Biso   1.000  C
  H69      1.0000 0.52000  0.51560  0.85920  Biso   1.000  H
  C99      1.0000 0.63100  0.53580  0.91920  Biso   1.000  C
  H70      1.0000 0.65890  0.47660  0.91500  Biso   1.000  H
  C100     1.0000 0.67480  0.59690  0.95940  Biso   1.000  C
  C101     1.0000 0.63550  0.68640  0.96540  Biso   1.000  C
  H71      1.0000 0.66520  0.72860  0.99260  Biso   1.000  H
  C102     1.0000 0.83040  0.60260  0.98830  Biso   1.000  C
  H72      1.0000 0.84130  0.67690  0.99370  Biso   1.000  H
  H73      1.0000 0.82050  0.58590  0.95530  Biso   1.000  H
  C103     1.0000 0.91980  0.43770  0.01630  Biso   1.000  C
  C104     1.0000 0.98640  0.37770  0.05290  Biso   1.000  C
  C105     1.0000 0.04150  0.42680  0.09750  Biso   1.000  C
  C106     1.0000 0.02760  0.53000  0.10510  Biso   1.000  C
  C107     1.0000 0.95950  0.58630  0.07000  Biso   1.000  C
  C108     1.0000 0.90720  0.53990  0.02550  Biso   1.000  C
  O19      1.0000 0.55350  0.09910  0.96478  Biso   1.000  O
  O20      1.0000 0.51020  0.02150  0.89310  Biso   1.000  O
  O21      1.0000 0.79870  0.32700  0.97627  Biso   1.000  O
  O22      1.0000 0.64070  0.98800  0.06517  Biso   1.000  O
  O23      1.0000 0.74040  0.06760  0.12923  Biso   1.000  O
  O24      1.0000 0.95220  0.21580  0.07527  Biso   1.000  O
  O25      1.0000 0.25460  0.14350  0.27900  Biso   1.000  O
  O26      1.0000 0.38920  0.08390  0.30010  Biso   1.000  O
  O27      1.0000 0.18460  0.35100  0.12690  Biso   1.000  O
  O28      1.0000 0.19260  0.91690  0.27327  Biso   1.000  O
  O29      1.0000 0.32770  0.89020  0.33250  Biso   1.000  O
  O30      1.0000 0.15800  0.60310  0.15980  Biso   1.000  O
  O31      1.0000 0.93090  0.99120  0.18367  Biso   1.000  O
  O32      1.0000 0.05140  0.09100  0.21767  Biso   1.000  O
  O33      1.0000 0.99760  0.76320  0.06851  Biso   1.000  O
  O34      1.0000 0.42710  0.82380  0.90080  Biso   1.000  O
  O35      1.0000 0.75920  0.57240  0.99650  Biso   1.000  O
  O36      1.0000 0.54150  0.85800  0.97550  Biso   1.000  O
  H74      1.0000 0.52300  0.89300  0.99500  Biso   1.000  H
  Mn5      1.0000 0.38322  0.03509  0.36370  Biso   1.000  Mn
  Mn6      1.0000 0.15536  0.93469  0.79129  Biso   1.000  Mn
  C109     1.0000 0.55520  0.91080  0.42420  Biso   1.000  C
  C110     1.0000 0.61270  0.84280  0.41190  Biso   1.000  C
  C111     1.0000 0.60080  0.83450  0.36450  Biso   1.000  C
  H75      1.0000 0.55640  0.87260  0.33980  Biso   1.000  H
  C112     1.0000 0.65540  0.76910  0.35370  Biso   1.000  C
  H76      1.0000 0.64700  0.76340  0.32150  Biso   1.000  H
  C113     1.0000 0.72120  0.71290  0.38910  Biso   1.000  C
  H77      1.0000 0.75670  0.66790  0.38140  Biso   1.000  H
  C114     1.0000 0.73430  0.72460  0.43780  Biso   1.000  C
  C115     1.0000 0.67980  0.78770  0.44840  Biso   1.000  C
  H78      1.0000 0.68780  0.79370  0.48050  Biso   1.000  H
  C116     1.0000 0.86200  0.61390  0.46830  Biso   1.000  C
  H79      1.0000 0.83290  0.56180  0.44320  Biso   1.000  H
  H80      1.0000 0.89740  0.65870  0.45810  Biso   1.000  H
  C117     1.0000 0.71450  0.97010  0.58640  Biso   1.000  C
  C118     1.0000 0.77520  0.95620  0.56270  Biso   1.000  C
  C119     1.0000 0.76720  0.01970  0.52470  Biso   1.000  C
  H81      1.0000 0.72240  0.06950  0.51260  Biso   1.000  H
  C120     1.0000 0.82690  0.00850  0.50470  Biso   1.000  C
  H82      1.0000 0.82360  0.05300  0.47990  Biso   1.000  H
  C121     1.0000 0.89080  0.93210  0.52150  Biso   1.000  C
  H83      1.0000 0.93150  0.92640  0.50840  Biso   1.000  H
  C122     1.0000 0.89520  0.86460  0.55710  Biso   1.000  C
  C123     1.0000 0.83790  0.88000  0.57800  Biso   1.000  C
  H84      1.0000 0.84240  0.83670  0.60340  Biso   1.000  H
  C124     1.0000 0.99220  0.73760  0.54710  Biso   1.000  C
  H85      1.0000 0.96040  0.75750  0.51300  Biso   1.000  H
  H86      1.0000 0.05370  0.75930  0.55920  Biso   1.000  H
  C125     1.0000 0.32130  0.86960  0.77260  Biso   1.000  C
  C126     1.0000 0.31780  0.82880  0.72540  Biso   1.000  C
  C127     1.0000 0.37530  0.87740  0.70530  Biso   1.000  C
  H87      1.0000 0.41710  0.92780  0.72290  Biso   1.000  H
  C128     1.0000 0.36400  0.84340  0.65730  Biso   1.000  C
  H88      1.0000 0.39950  0.87150  0.64390  Biso   1.000  H
  C129     1.0000 0.30060  0.76930  0.63180  Biso   1.000  C
  H89      1.0000 0.29100  0.75020  0.60040  Biso   1.000  H
  C130     1.0000 0.24760  0.72020  0.65480  Biso   1.000  C
  C131     1.0000 0.25370  0.75570  0.69980  Biso   1.000  C
  H90      1.0000 0.21540  0.73050  0.71200  Biso   1.000  H
  C132     1.0000 0.11020  0.63800  0.63650  Biso   1.000  C
  H91      1.0000 0.12780  0.60500  0.66810  Biso   1.000  H
  H92      1.0000 0.08580  0.70620  0.63750  Biso   1.000  H
  C133     1.0000 0.26340  0.13360  0.79290  Biso   1.000  C
  C134     1.0000 0.27560  0.23030  0.76840  Biso   1.000  C
  C135     1.0000 0.35500  0.28460  0.78940  Biso   1.000  C
  H93      1.0000 0.40030  0.25950  0.81820  Biso   1.000  H
  C136     1.0000 0.36930  0.37250  0.76970  Biso   1.000  C
  H94      1.0000 0.42420  0.40580  0.78390  Biso   1.000  H
  C137     1.0000 0.30120  0.41220  0.72810  Biso   1.000  C
  H95      1.0000 0.30820  0.47540  0.71520  Biso   1.000  H
  C138     1.0000 0.22260  0.35740  0.70570  Biso   1.000  C
  C139     1.0000 0.20750  0.26770  0.72520  Biso   1.000  C
  H96      1.0000 0.15340  0.23280  0.71010  Biso   1.000  H
  C140     1.0000 0.08610  0.42260  0.65810  Biso   1.000  C
  H97      1.0000 0.05660  0.36240  0.66360  Biso   1.000  H
  H98      1.0000 0.09470  0.47420  0.68300  Biso   1.000  H
  C141     1.0000 0.00430  0.97840  0.68800  Biso   1.000  C
  C142     1.0000 0.04090  0.02370  0.65520  Biso   1.000  C
  C143     1.0000 0.11800  0.98610  0.65610  Biso   1.000  C
  H99      1.0000 0.14850  0.93170  0.67690  Biso   1.000  H
  C144     1.0000 0.15030  0.03090  0.62530  Biso   1.000  C
  H100     1.0000 0.20120  0.00390  0.62450  Biso   1.000  H
  C145     1.0000 0.10850  0.11260  0.59690  Biso   1.000  C
  H101     1.0000 0.13110  0.14200  0.57670  Biso   1.000  H
  C146     1.0000 0.03400  0.15250  0.59720  Biso   1.000  C
  C147     1.0000 0.99880  0.10640  0.62540  Biso   1.000  C
  H102     1.0000 0.94590  0.13140  0.62440  Biso   1.000  H
  C148     1.0000 0.94230  0.30410  0.57900  Biso   1.000  C
  H103     1.0000 0.88050  0.28680  0.55850  Biso   1.000  H
  H104     1.0000 0.95360  0.29600  0.61290  Biso   1.000  H
  C149     1.0000 0.50180  0.19360  0.43540  Biso   1.000  C
  C150     1.0000 0.54980  0.28680  0.43010  Biso   1.000  C
  C151     1.0000 0.50830  0.35090  0.39140  Biso   1.000  C
  H105     1.0000 0.45120  0.33460  0.36800  Biso   1.000  H
  C152     1.0000 0.54940  0.44080  0.38590  Biso   1.000  C
  H106     1.0000 0.52000  0.48440  0.35920  Biso   1.000  H
  C153     1.0000 0.63100  0.46420  0.41920  Biso   1.000  C
  H107     1.0000 0.65890  0.52340  0.41500  Biso   1.000  H
  C154     1.0000 0.67480  0.40310  0.45940  Biso   1.000  C
  C155     1.0000 0.63550  0.31360  0.46540  Biso   1.000  C
  H108     1.0000 0.66520  0.27140  0.49260  Biso   1.000  H
  C156     1.0000 0.83040  0.39740  0.48830  Biso   1.000  C
  H109     1.0000 0.84130  0.32310  0.49370  Biso   1.000  H
  H110     1.0000 0.82050  0.41410  0.45530  Biso   1.000  H
  C157     1.0000 0.91980  0.56230  0.51630  Biso   1.000  C
  C158     1.0000 0.98640  0.62230  0.55290  Biso   1.000  C
  C159     1.0000 0.04150  0.57320  0.59750  Biso   1.000  C
  C160     1.0000 0.02760  0.47000  0.60510  Biso   1.000  C
  C161     1.0000 0.95950  0.41370  0.57000  Biso   1.000  C
  C162     1.0000 0.90720  0.46010  0.52550  Biso   1.000  C
  O37      1.0000 0.55350  0.90090  0.46478  Biso   1.000  O
  O38      1.0000 0.51020  0.97850  0.39310  Biso   1.000  O
  O39      1.0000 0.79870  0.67300  0.47627  Biso   1.000  O
  O40      1.0000 0.64070  0.01200  0.56517  Biso   1.000  O
  O41      1.0000 0.74040  0.93240  0.62923  Biso   1.000  O
  O42      1.0000 0.95220  0.78420  0.57527  Biso   1.000  O
  O43      1.0000 0.25460  0.85650  0.77900  Biso   1.000  O
  O44      1.0000 0.38920  0.91610  0.80010  Biso   1.000  O
  O45      1.0000 0.18460  0.64900  0.62690  Biso   1.000  O
  O46      1.0000 0.19260  0.08310  0.77327  Biso   1.000  O
  O47      1.0000 0.32770  0.10980  0.83250  Biso   1.000  O
  O48      1.0000 0.15800  0.39690  0.65980  Biso   1.000  O
  O49      1.0000 0.93090  0.00880  0.68367  Biso   1.000  O
  O50      1.0000 0.05140  0.90900  0.71767  Biso   1.000  O
  O51      1.0000 0.99760  0.23680  0.56851  Biso   1.000  O
  O52      1.0000 0.42710  0.17620  0.40080  Biso   1.000  O
  O53      1.0000 0.75920  0.42760  0.49650  Biso   1.000  O
  O54      1.0000 0.54150  0.14200  0.47550  Biso   1.000  O
  H111     1.0000 0.52300  0.10700  0.49500  Biso   1.000  H
  Mn7      1.0000 0.61678  0.03509  0.13630  Biso   1.000  Mn
  Mn8      1.0000 0.84464  0.93469  0.70871  Biso   1.000  Mn
  C163     1.0000 0.44480  0.91080  0.07580  Biso   1.000  C
  C164     1.0000 0.38730  0.84280  0.08810  Biso   1.000  C
  C165     1.0000 0.39920  0.83450  0.13550  Biso   1.000  C
  H112     1.0000 0.44360  0.87260  0.16020  Biso   1.000  H
  C166     1.0000 0.34460  0.76910  0.14630  Biso   1.000  C
  H113     1.0000 0.35300  0.76340  0.17850  Biso   1.000  H
  C167     1.0000 0.27880  0.71290  0.11090  Biso   1.000  C
  H114     1.0000 0.24330  0.66790  0.11860  Biso   1.000  H
  C168     1.0000 0.26570  0.72460  0.06220  Biso   1.000  C
  C169     1.0000 0.32020  0.78770  0.05160  Biso   1.000  C
  H115     1.0000 0.31220  0.79370  0.01950  Biso   1.000  H
  C170     1.0000 0.13800  0.61390  0.03170  Biso   1.000  C
  H116     1.0000 0.16710  0.56180  0.05680  Biso   1.000  H
  H117     1.0000 0.10260  0.65870  0.04190  Biso   1.000  H
  C171     1.0000 0.28550  0.97010  0.91360  Biso   1.000  C
  C172     1.0000 0.22480  0.95620  0.93730  Biso   1.000  C
  C173     1.0000 0.23280  0.01970  0.97530  Biso   1.000  C
  H118     1.0000 0.27760  0.06950  0.98740  Biso   1.000  H
  C174     1.0000 0.17310  0.00850  0.99530  Biso   1.000  C
  H119     1.0000 0.17640  0.05300  0.02010  Biso   1.000  H
  C175     1.0000 0.10920  0.93210  0.97850  Biso   1.000  C
  H120     1.0000 0.06850  0.92640  0.99160  Biso   1.000  H
  C176     1.0000 0.10480  0.86460  0.94290  Biso   1.000  C
  C177     1.0000 0.16210  0.88000  0.92200  Biso   1.000  C
  H121     1.0000 0.15760  0.83670  0.89660  Biso   1.000  H
  C178     1.0000 0.00780  0.73760  0.95290  Biso   1.000  C
  H122     1.0000 0.03960  0.75750  0.98700  Biso   1.000  H
  H123     1.0000 0.94630  0.75930  0.94080  Biso   1.000  H
  C179     1.0000 0.67870  0.86960  0.72740  Biso   1.000  C
  C180     1.0000 0.68220  0.82880  0.77460  Biso   1.000  C
  C181     1.0000 0.62470  0.87740  0.79470  Biso   1.000  C
  H124     1.0000 0.58290  0.92780  0.77710  Biso   1.000  H
  C182     1.0000 0.63600  0.84340  0.84270  Biso   1.000  C
  H125     1.0000 0.60050  0.87150  0.85610  Biso   1.000  H
  C183     1.0000 0.69940  0.76930  0.86820  Biso   1.000  C
  H126     1.0000 0.70900  0.75020  0.89960  Biso   1.000  H
  C184     1.0000 0.75240  0.72020  0.84520  Biso   1.000  C
  C185     1.0000 0.74630  0.75570  0.80020  Biso   1.000  C
  H127     1.0000 0.78460  0.73050  0.78800  Biso   1.000  H
  C186     1.0000 0.88980  0.63800  0.86350  Biso   1.000  C
  H128     1.0000 0.87220  0.60500  0.83190  Biso   1.000  H
  H129     1.0000 0.91420  0.70620  0.86250  Biso   1.000  H
  C187     1.0000 0.73660  0.13360  0.70710  Biso   1.000  C
  C188     1.0000 0.72440  0.23030  0.73160  Biso   1.000  C
  C189     1.0000 0.64500  0.28460  0.71060  Biso   1.000  C
  H130     1.0000 0.59970  0.25950  0.68180  Biso   1.000  H
  C190     1.0000 0.63070  0.37250  0.73030  Biso   1.000  C
  H131     1.0000 0.57580  0.40580  0.71610  Biso   1.000  H
  C191     1.0000 0.69880  0.41220  0.77190  Biso   1.000  C
  H132     1.0000 0.69180  0.47540  0.78480  Biso   1.000  H
  C192     1.0000 0.77740  0.35740  0.79430  Biso   1.000  C
  C193     1.0000 0.79250  0.26770  0.77480  Biso   1.000  C
  H133     1.0000 0.84660  0.23280  0.78990  Biso   1.000  H
  C194     1.0000 0.91390  0.42260  0.84190  Biso   1.000  C
  H134     1.0000 0.94340  0.36240  0.83640  Biso   1.000  H
  H135     1.0000 0.90530  0.47420  0.81700  Biso   1.000  H
  C195     1.0000 0.99570  0.97840  0.81200  Biso   1.000  C
  C196     1.0000 0.95910  0.02370  0.84480  Biso   1.000  C
  C197     1.0000 0.88200  0.98610  0.84390  Biso   1.000  C
  H136     1.0000 0.85150  0.93170  0.82310  Biso   1.000  H
  C198     1.0000 0.84970  0.03090  0.87470  Biso   1.000  C
  H137     1.0000 0.79880  0.00390  0.87550  Biso   1.000  H
  C199     1.0000 0.89150  0.11260  0.90310  Biso   1.000  C
  H138     1.0000 0.86890  0.14200  0.92330  Biso   1.000  H
  C200     1.0000 0.96600  0.15250  0.90280  Biso   1.000  C
  C201     1.0000 0.00120  0.10640  0.87460  Biso   1.000  C
  H139     1.0000 0.05410  0.13140  0.87560  Biso   1.000  H
  C202     1.0000 0.05770  0.30410  0.92100  Biso   1.000  C
  H140     1.0000 0.11950  0.28680  0.94150  Biso   1.000  H
  H141     1.0000 0.04640  0.29600  0.88710  Biso   1.000  H
  C203     1.0000 0.49820  0.19360  0.06460  Biso   1.000  C
  C204     1.0000 0.45020  0.28680  0.06990  Biso   1.000  C
  C205     1.0000 0.49170  0.35090  0.10860  Biso   1.000  C
  H142     1.0000 0.54880  0.33460  0.13200  Biso   1.000  H
  C206     1.0000 0.45060  0.44080  0.11410  Biso   1.000  C
  H143     1.0000 0.48000  0.48440  0.14080  Biso   1.000  H
  C207     1.0000 0.36900  0.46420  0.08080  Biso   1.000  C
  H144     1.0000 0.34110  0.52340  0.08500  Biso   1.000  H
  C208     1.0000 0.32520  0.40310  0.04060  Biso   1.000  C
  C209     1.0000 0.36450  0.31360  0.03460  Biso   1.000  C
  H145     1.0000 0.33480  0.27140  0.00740  Biso   1.000  H
  C210     1.0000 0.16960  0.39740  0.01170  Biso   1.000  C
  H146     1.0000 0.15870  0.32310  0.00630  Biso   1.000  H
  H147     1.0000 0.17950  0.41410  0.04470  Biso   1.000  H
  C211     1.0000 0.08020  0.56230  0.98370  Biso   1.000  C
  C212     1.0000 0.01360  0.62230  0.94710  Biso   1.000  C
  C213     1.0000 0.95850  0.57320  0.90250  Biso   1.000  C
  C214     1.0000 0.97240  0.47000  0.89490  Biso   1.000  C
  C215     1.0000 0.04050  0.41370  0.93000  Biso   1.000  C
  C216     1.0000 0.09280  0.46010  0.97450  Biso   1.000  C
  O55      1.0000 0.44650  0.90090  0.03522  Biso   1.000  O
  O56      1.0000 0.48980  0.97850  0.10690  Biso   1.000  O
  O57      1.0000 0.20130  0.67300  0.02373  Biso   1.000  O
  O58      1.0000 0.35930  0.01200  0.93483  Biso   1.000  O
  O59      1.0000 0.25960  0.93240  0.87077  Biso   1.000  O
  O60      1.0000 0.04780  0.78420  0.92473  Biso   1.000  O
  O61      1.0000 0.74540  0.85650  0.72100  Biso   1.000  O
  O62      1.0000 0.61080  0.91610  0.69990  Biso   1.000  O
  O63      1.0000 0.81540  0.64900  0.87310  Biso   1.000  O
  O64      1.0000 0.80740  0.08310  0.72673  Biso   1.000  O
  O65      1.0000 0.67230  0.10980  0.66750  Biso   1.000  O
  O66      1.0000 0.84200  0.39690  0.84020  Biso   1.000  O
  O67      1.0000 0.06910  0.00880  0.81633  Biso   1.000  O
  O68      1.0000 0.94860  0.90900  0.78233  Biso   1.000  O
  O69      1.0000 0.00240  0.23680  0.93149  Biso   1.000  O
  O70      1.0000 0.57290  0.17620  0.09920  Biso   1.000  O
  O71      1.0000 0.24080  0.42760  0.00350  Biso   1.000  O
  O72      1.0000 0.45850  0.14200  0.02450  Biso   1.000  O
  H148     1.0000 0.47700  0.10700  0.00500  Biso   1.000  H
  Mn9      1.0000 0.50000  0.00000  0.50000  Biso   1.000  Mn
  Mn10     1.0000 0.50000  0.00000  0.00000  Biso   1.000  Mn
