data_image0
_cell_length_a       33.193
_cell_length_b       6.8956
_cell_length_c       21.9291
_cell_angle_alpha    90
_cell_angle_beta     114.468
_cell_angle_gamma    90

_symmetry_space_group_name_H-M    "P 1"
_symmetry_int_tables_number       1

loop_
  _symmetry_equiv_pos_as_xyz
  'x, y, z'

loop_
  _atom_site_label
  _atom_site_occupancy
  _atom_site_fract_x
  _atom_site_fract_y
  _atom_site_fract_z
  _atom_site_thermal_displace_type
  _atom_site_B_iso_or_equiv
  _atom_site_type_symbol
  N1       1.0000 0.59689  0.97320  0.88090  Biso   1.000  N
  N2       1.0000 0.54171  0.78550  0.81770  Biso   1.000  N
  C1       1.0000 0.58513  0.80920  0.84480  Biso   1.000  C
  H1       1.0000 0.60500  0.72300  0.83960  Biso   1.000  H
  C2       1.0000 0.52516  0.93820  0.83960  Biso   1.000  C
  H2       1.0000 0.49540  0.95870  0.82950  Biso   1.000  H
  C3       1.0000 0.55851  0.05440  0.87810  Biso   1.000  C
  H3       1.0000 0.55600  0.16850  0.89880  Biso   1.000  H
  C4       1.0000 0.64130  0.05170  0.91680  Biso   1.000  C
  C5       1.0000 0.64715  0.23880  0.93990  Biso   1.000  C
  H4       1.0000 0.62270  0.31580  0.93320  Biso   1.000  H
  C6       1.0000 0.68961  0.31380  0.97350  Biso   1.000  C
  H5       1.0000 0.69290  0.43900  0.99060  Biso   1.000  H
  C7       1.0000 0.72676  0.20920  0.98210  Biso   1.000  C
  C8       1.0000 0.72035  0.01970  0.95830  Biso   1.000  C
  H6       1.0000 0.74480  0.94350  0.96430  Biso   1.000  H
  C9       1.0000 0.67814  0.94160  0.92570  Biso   1.000  C
  H7       1.0000 0.67470  0.81480  0.90980  Biso   1.000  H
  N3       1.0000 0.40311  0.97320  0.61910  Biso   1.000  N
  N4       1.0000 0.45829  0.78550  0.68230  Biso   1.000  N
  C10      1.0000 0.41487  0.80920  0.65520  Biso   1.000  C
  H8       1.0000 0.39500  0.72300  0.66040  Biso   1.000  H
  C11      1.0000 0.47484  0.93820  0.66040  Biso   1.000  C
  H9       1.0000 0.50460  0.95870  0.67050  Biso   1.000  H
  C12      1.0000 0.44149  0.05440  0.62190  Biso   1.000  C
  H10      1.0000 0.44400  0.16850  0.60120  Biso   1.000  H
  C13      1.0000 0.35870  0.05170  0.58320  Biso   1.000  C
  C14      1.0000 0.35285  0.23880  0.56010  Biso   1.000  C
  H11      1.0000 0.37730  0.31580  0.56680  Biso   1.000  H
  C15      1.0000 0.31039  0.31380  0.52650  Biso   1.000  C
  H12      1.0000 0.30710  0.43900  0.50940  Biso   1.000  H
  C16      1.0000 0.27324  0.20920  0.51790  Biso   1.000  C
  C17      1.0000 0.27965  0.01970  0.54170  Biso   1.000  C
  H13      1.0000 0.25520  0.94350  0.53570  Biso   1.000  H
  C18      1.0000 0.32186  0.94160  0.57430  Biso   1.000  C
  H14      1.0000 0.32530  0.81480  0.59020  Biso   1.000  H
  N5       1.0000 0.90311  0.52680  0.11910  Biso   1.000  N
  N6       1.0000 0.95829  0.71450  0.18230  Biso   1.000  N
  C19      1.0000 0.91487  0.69080  0.15520  Biso   1.000  C
  H15      1.0000 0.89500  0.77700  0.16040  Biso   1.000  H
  C20      1.0000 0.97484  0.56180  0.16040  Biso   1.000  C
  H16      1.0000 0.00460  0.54130  0.17050  Biso   1.000  H
  C21      1.0000 0.94149  0.44560  0.12190  Biso   1.000  C
  H17      1.0000 0.94400  0.33150  0.10120  Biso   1.000  H
  C22      1.0000 0.85870  0.44830  0.08320  Biso   1.000  C
  C23      1.0000 0.85285  0.26120  0.06010  Biso   1.000  C
  H18      1.0000 0.87730  0.18420  0.06680  Biso   1.000  H
  C24      1.0000 0.81039  0.18620  0.02650  Biso   1.000  C
  H19      1.0000 0.80710  0.06100  0.00940  Biso   1.000  H
  C25      1.0000 0.77324  0.29080  0.01790  Biso   1.000  C
  C26      1.0000 0.77965  0.48030  0.04170  Biso   1.000  C
  H20      1.0000 0.75520  0.55650  0.03570  Biso   1.000  H
  C27      1.0000 0.82186  0.55840  0.07430  Biso   1.000  C
  H21      1.0000 0.82530  0.68520  0.09020  Biso   1.000  H
  N7       1.0000 0.09689  0.52680  0.38090  Biso   1.000  N
  N8       1.0000 0.04171  0.71450  0.31770  Biso   1.000  N
  C28      1.0000 0.08513  0.69080  0.34480  Biso   1.000  C
  H22      1.0000 0.10500  0.77700  0.33960  Biso   1.000  H
  C29      1.0000 0.02516  0.56180  0.33960  Biso   1.000  C
  H23      1.0000 0.99540  0.54130  0.32950  Biso   1.000  H
  C30      1.0000 0.05851  0.44560  0.37810  Biso   1.000  C
  H24      1.0000 0.05600  0.33150  0.39880  Biso   1.000  H
  C31      1.0000 0.14130  0.44830  0.41680  Biso   1.000  C
  C32      1.0000 0.14715  0.26120  0.43990  Biso   1.000  C
  H25      1.0000 0.12270  0.18420  0.43320  Biso   1.000  H
  C33      1.0000 0.18961  0.18620  0.47350  Biso   1.000  C
  H26      1.0000 0.19290  0.06100  0.49060  Biso   1.000  H
  C34      1.0000 0.22676  0.29080  0.48210  Biso   1.000  C
  C35      1.0000 0.22035  0.48030  0.45830  Biso   1.000  C
  H27      1.0000 0.24480  0.55650  0.46430  Biso   1.000  H
  C36      1.0000 0.17814  0.55840  0.42570  Biso   1.000  C
  H28      1.0000 0.17470  0.68520  0.40980  Biso   1.000  H
  Co1      1.0000 0.50000  0.59262  0.75000  Biso   1.000  Co
  Co2      1.0000 0.00000  0.90738  0.25000  Biso   1.000  Co
  N9       1.0000 0.09689  0.47320  0.88090  Biso   1.000  N
  N10      1.0000 0.04171  0.28550  0.81770  Biso   1.000  N
  C37      1.0000 0.08513  0.30920  0.84480  Biso   1.000  C
  H29      1.0000 0.10500  0.22300  0.83960  Biso   1.000  H
  C38      1.0000 0.02516  0.43820  0.83960  Biso   1.000  C
  H30      1.0000 0.99540  0.45870  0.82950  Biso   1.000  H
  C39      1.0000 0.05851  0.55440  0.87810  Biso   1.000  C
  H31      1.0000 0.05600  0.66850  0.89880  Biso   1.000  H
  C40      1.0000 0.14130  0.55170  0.91680  Biso   1.000  C
  C41      1.0000 0.14715  0.73880  0.93990  Biso   1.000  C
  H32      1.0000 0.12270  0.81580  0.93320  Biso   1.000  H
  C42      1.0000 0.18961  0.81380  0.97350  Biso   1.000  C
  H33      1.0000 0.19290  0.93900  0.99060  Biso   1.000  H
  C43      1.0000 0.22676  0.70920  0.98210  Biso   1.000  C
  C44      1.0000 0.22035  0.51970  0.95830  Biso   1.000  C
  H34      1.0000 0.24480  0.44350  0.96430  Biso   1.000  H
  C45      1.0000 0.17814  0.44160  0.92570  Biso   1.000  C
  H35      1.0000 0.17470  0.31480  0.90980  Biso   1.000  H
  N11      1.0000 0.90311  0.47320  0.61910  Biso   1.000  N
  N12      1.0000 0.95829  0.28550  0.68230  Biso   1.000  N
  C46      1.0000 0.91487  0.30920  0.65520  Biso   1.000  C
  H36      1.0000 0.89500  0.22300  0.66040  Biso   1.000  H
  C47      1.0000 0.97484  0.43820  0.66040  Biso   1.000  C
  H37      1.0000 0.00460  0.45870  0.67050  Biso   1.000  H
  C48      1.0000 0.94149  0.55440  0.62190  Biso   1.000  C
  H38      1.0000 0.94400  0.66850  0.60120  Biso   1.000  H
  C49      1.0000 0.85870  0.55170  0.58320  Biso   1.000  C
  C50      1.0000 0.85285  0.73880  0.56010  Biso   1.000  C
  H39      1.0000 0.87730  0.81580  0.56680  Biso   1.000  H
  C51      1.0000 0.81039  0.81380  0.52650  Biso   1.000  C
  H40      1.0000 0.80710  0.93900  0.50940  Biso   1.000  H
  C52      1.0000 0.77324  0.70920  0.51790  Biso   1.000  C
  C53      1.0000 0.77965  0.51970  0.54170  Biso   1.000  C
  H41      1.0000 0.75520  0.44350  0.53570  Biso   1.000  H
  C54      1.0000 0.82186  0.44160  0.57430  Biso   1.000  C
  H42      1.0000 0.82530  0.31480  0.59020  Biso   1.000  H
  N13      1.0000 0.40311  0.02680  0.11910  Biso   1.000  N
  N14      1.0000 0.45829  0.21450  0.18230  Biso   1.000  N
  C55      1.0000 0.41487  0.19080  0.15520  Biso   1.000  C
  H43      1.0000 0.39500  0.27700  0.16040  Biso   1.000  H
  C56      1.0000 0.47484  0.06180  0.16040  Biso   1.000  C
  H44      1.0000 0.50460  0.04130  0.17050  Biso   1.000  H
  C57      1.0000 0.44149  0.94560  0.12190  Biso   1.000  C
  H45      1.0000 0.44400  0.83150  0.10120  Biso   1.000  H
  C58      1.0000 0.35870  0.94830  0.08320  Biso   1.000  C
  C59      1.0000 0.35285  0.76120  0.06010  Biso   1.000  C
  H46      1.0000 0.37730  0.68420  0.06680  Biso   1.000  H
  C60      1.0000 0.31039  0.68620  0.02650  Biso   1.000  C
  H47      1.0000 0.30710  0.56100  0.00940  Biso   1.000  H
  C61      1.0000 0.27324  0.79080  0.01790  Biso   1.000  C
  C62      1.0000 0.27965  0.98030  0.04170  Biso   1.000  C
  H48      1.0000 0.25520  0.05650  0.03570  Biso   1.000  H
  C63      1.0000 0.32186  0.05840  0.07430  Biso   1.000  C
  H49      1.0000 0.32530  0.18520  0.09020  Biso   1.000  H
  N15      1.0000 0.59689  0.02680  0.38090  Biso   1.000  N
  N16      1.0000 0.54171  0.21450  0.31770  Biso   1.000  N
  C64      1.0000 0.58513  0.19080  0.34480  Biso   1.000  C
  H50      1.0000 0.60500  0.27700  0.33960  Biso   1.000  H
  C65      1.0000 0.52516  0.06180  0.33960  Biso   1.000  C
  H51      1.0000 0.49540  0.04130  0.32950  Biso   1.000  H
  C66      1.0000 0.55851  0.94560  0.37810  Biso   1.000  C
  H52      1.0000 0.55600  0.83150  0.39880  Biso   1.000  H
  C67      1.0000 0.64130  0.94830  0.41680  Biso   1.000  C
  C68      1.0000 0.64715  0.76120  0.43990  Biso   1.000  C
  H53      1.0000 0.62270  0.68420  0.43320  Biso   1.000  H
  C69      1.0000 0.68961  0.68620  0.47350  Biso   1.000  C
  H54      1.0000 0.69290  0.56100  0.49060  Biso   1.000  H
  C70      1.0000 0.72676  0.79080  0.48210  Biso   1.000  C
  C71      1.0000 0.72035  0.98030  0.45830  Biso   1.000  C
  H55      1.0000 0.74480  0.05650  0.46430  Biso   1.000  H
  C72      1.0000 0.67814  0.05840  0.42570  Biso   1.000  C
  H56      1.0000 0.67470  0.18520  0.40980  Biso   1.000  H
  Co3      1.0000 0.00000  0.09262  0.75000  Biso   1.000  Co
  Co4      1.0000 0.50000  0.40738  0.25000  Biso   1.000  Co
