data_image0
_cell_length_a       11.5165
_cell_length_b       33.108
_cell_length_c       15.349
_cell_angle_alpha    90
_cell_angle_beta     103.074
_cell_angle_gamma    90

_symmetry_space_group_name_H-M    "P 1"
_symmetry_int_tables_number       1

loop_
  _symmetry_equiv_pos_as_xyz
  'x, y, z'

loop_
  _atom_site_label
  _atom_site_occupancy
  _atom_site_fract_x
  _atom_site_fract_y
  _atom_site_fract_z
  _atom_site_thermal_displace_type
  _atom_site_B_iso_or_equiv
  _atom_site_type_symbol
  C1       1.0000 0.07760  0.62012  0.87460  Biso   1.000  C
  C2       1.0000 0.17180  0.59277  0.88420  Biso   1.000  C
  C3       1.0000 0.21330  0.57465  0.96540  Biso   1.000  C
  C4       1.0000 0.16470  0.58352  0.03860  Biso   1.000  C
  C5       1.0000 0.07380  0.61209  0.02700  Biso   1.000  C
  C6       1.0000 0.31970  0.54678  0.98120  Biso   1.000  C
  C7       1.0000 0.54610  0.82140  0.85390  Biso   1.000  C
  C8       1.0000 0.47780  0.84828  0.83070  Biso   1.000  C
  C9       1.0000 0.39380  0.87738  0.78400  Biso   1.000  C
  C10      1.0000 0.37480  0.87894  0.69210  Biso   1.000  C
  C11      1.0000 0.29030  0.90431  0.64010  Biso   1.000  C
  C12      1.0000 0.22530  0.92941  0.68180  Biso   1.000  C
  C13      1.0000 0.24310  0.92861  0.77380  Biso   1.000  C
  C14      1.0000 0.32760  0.90235  0.82620  Biso   1.000  C
  C15      1.0000 0.13100  0.95592  0.62670  Biso   1.000  C
  C16      1.0000 0.56460  0.76921  0.02340  Biso   1.000  C
  C17      1.0000 0.50380  0.72892  0.02140  Biso   1.000  C
  C18      1.0000 0.58470  0.69675  0.03740  Biso   1.000  C
  C19      1.0000 0.71190  0.71029  0.05550  Biso   1.000  C
  C20      1.0000 0.72090  0.73399  0.97210  Biso   1.000  C
  C21      1.0000 0.79540  0.72391  0.91480  Biso   1.000  C
  C22      1.0000 0.78830  0.74773  0.83810  Biso   1.000  C
  C23      1.0000 0.86280  0.74255  0.76850  Biso   1.000  C
  C24      1.0000 0.77270  0.73555  0.68100  Biso   1.000  C
  C25      1.0000 0.68800  0.76602  0.66050  Biso   1.000  C
  C26      1.0000 0.70720  0.79953  0.73020  Biso   1.000  C
  C27      1.0000 0.70570  0.77896  0.81900  Biso   1.000  C
  C28      1.0000 0.63200  0.78872  0.87650  Biso   1.000  C
  C29      1.0000 0.64180  0.76543  0.95370  Biso   1.000  C
  C30      1.0000 0.38310  0.72120  0.00500  Biso   1.000  C
  C31      1.0000 0.34450  0.68120  0.00430  Biso   1.000  C
  C32      1.0000 0.42340  0.64950  0.01870  Biso   1.000  C
  C33      1.0000 0.54480  0.65720  0.03610  Biso   1.000  C
  C34      1.0000 0.76920  0.70241  0.62650  Biso   1.000  C
  C35      1.0000 0.67750  0.69980  0.54890  Biso   1.000  C
  C36      1.0000 0.59380  0.72940  0.52950  Biso   1.000  C
  C37      1.0000 0.59810  0.76270  0.58610  Biso   1.000  C
  C38      1.0000 0.65050  0.77259  0.11360  Biso   1.000  C
  C39      1.0000 0.73040  0.74088  0.13060  Biso   1.000  C
  C40      1.0000 0.81670  0.73914  0.20990  Biso   1.000  C
  C41      1.0000 0.81930  0.76990  0.27260  Biso   1.000  C
  C42      1.0000 0.73930  0.80120  0.25610  Biso   1.000  C
  C43      1.0000 0.65370  0.80298  0.17750  Biso   1.000  C
  C44      1.0000 0.83470  0.81521  0.74080  Biso   1.000  C
  C45      1.0000 0.91840  0.78437  0.76090  Biso   1.000  C
  C46      1.0000 0.03810  0.79350  0.77530  Biso   1.000  C
  C47      1.0000 0.07260  0.83370  0.76820  Biso   1.000  C
  C48      1.0000 0.98720  0.86320  0.74840  Biso   1.000  C
  C49      1.0000 0.86900  0.85470  0.73420  Biso   1.000  C
  C50      1.0000 0.87240  0.68916  0.92900  Biso   1.000  C
  C51      1.0000 0.94000  0.66160  0.93560  Biso   1.000  C
  C52      1.0000 0.02950  0.63078  0.94570  Biso   1.000  C
  Zn1      1.0000 0.46553  0.48261  0.07945  Biso   1.000  Zn
  O1       1.0000 0.33890  0.52462  0.04860  Biso   1.000  O
  O2       1.0000 0.38280  0.54811  0.92210  Biso   1.000  O
  O3       1.0000 0.07180  0.97845  0.66720  Biso   1.000  O
  O4       1.0000 0.11750  0.95347  0.54160  Biso   1.000  O
  H1       1.0000 0.04570  0.63160  0.81800  Biso   1.000  H
  H2       1.0000 0.20660  0.58660  0.83600  Biso   1.000  H
  H3       1.0000 0.19370  0.57100  0.09400  Biso   1.000  H
  H4       1.0000 0.04060  0.61840  0.07530  Biso   1.000  H
  H5       1.0000 0.42030  0.86150  0.66450  Biso   1.000  H
  H6       1.0000 0.27860  0.90470  0.57730  Biso   1.000  H
  H7       1.0000 0.19730  0.94600  0.80150  Biso   1.000  H
  H8       1.0000 0.33950  0.90140  0.88950  Biso   1.000  H
  H9       1.0000 0.50860  0.79210  0.01120  Biso   1.000  H
  H10      1.0000 0.76750  0.68720  0.06790  Biso   1.000  H
  H11      1.0000 0.92220  0.72080  0.78340  Biso   1.000  H
  H12      1.0000 0.64540  0.82000  0.71410  Biso   1.000  H
  H13      1.0000 0.32870  0.74300  0.99270  Biso   1.000  H
  H14      1.0000 0.26250  0.67590  0.99410  Biso   1.000  H
  H15      1.0000 0.39530  0.62280  0.01670  Biso   1.000  H
  H16      1.0000 0.59870  0.63580  0.04740  Biso   1.000  H
  H17      1.0000 0.82650  0.68170  0.64090  Biso   1.000  H
  H18      1.0000 0.67400  0.67730  0.51210  Biso   1.000  H
  H19      1.0000 0.53260  0.72740  0.47820  Biso   1.000  H
  H20      1.0000 0.53890  0.78300  0.57330  Biso   1.000  H
  H21      1.0000 0.87040  0.71720  0.22050  Biso   1.000  H
  H22      1.0000 0.87710  0.76940  0.32750  Biso   1.000  H
  H23      1.0000 0.74380  0.82180  0.29940  Biso   1.000  H
  H24      1.0000 0.59770  0.82420  0.16570  Biso   1.000  H
  H25      1.0000 0.09530  0.77250  0.78980  Biso   1.000  H
  H26      1.0000 0.15230  0.84020  0.77760  Biso   1.000  H
  H27      1.0000 0.01060  0.89010  0.74430  Biso   1.000  H
  H28      1.0000 0.81040  0.87510  0.72030  Biso   1.000  H
  C53      1.0000 0.42240  0.12012  0.62540  Biso   1.000  C
  C54      1.0000 0.32820  0.09277  0.61580  Biso   1.000  C
  C55      1.0000 0.28670  0.07465  0.53460  Biso   1.000  C
  C56      1.0000 0.33530  0.08352  0.46140  Biso   1.000  C
  C57      1.0000 0.42620  0.11209  0.47300  Biso   1.000  C
  C58      1.0000 0.18030  0.04678  0.51880  Biso   1.000  C
  C59      1.0000 0.95390  0.32140  0.64610  Biso   1.000  C
  C60      1.0000 0.02220  0.34828  0.66930  Biso   1.000  C
  C61      1.0000 0.10620  0.37738  0.71600  Biso   1.000  C
  C62      1.0000 0.12520  0.37894  0.80790  Biso   1.000  C
  C63      1.0000 0.20970  0.40431  0.85990  Biso   1.000  C
  C64      1.0000 0.27470  0.42941  0.81820  Biso   1.000  C
  C65      1.0000 0.25690  0.42861  0.72620  Biso   1.000  C
  C66      1.0000 0.17240  0.40235  0.67380  Biso   1.000  C
  C67      1.0000 0.36900  0.45592  0.87330  Biso   1.000  C
  C68      1.0000 0.93540  0.26921  0.47660  Biso   1.000  C
  C69      1.0000 0.99620  0.22892  0.47860  Biso   1.000  C
  C70      1.0000 0.91530  0.19675  0.46260  Biso   1.000  C
  C71      1.0000 0.78810  0.21029  0.44450  Biso   1.000  C
  C72      1.0000 0.77910  0.23399  0.52790  Biso   1.000  C
  C73      1.0000 0.70460  0.22391  0.58520  Biso   1.000  C
  C74      1.0000 0.71170  0.24773  0.66190  Biso   1.000  C
  C75      1.0000 0.63720  0.24255  0.73150  Biso   1.000  C
  C76      1.0000 0.72730  0.23555  0.81900  Biso   1.000  C
  C77      1.0000 0.81200  0.26602  0.83950  Biso   1.000  C
  C78      1.0000 0.79280  0.29953  0.76980  Biso   1.000  C
  C79      1.0000 0.79430  0.27896  0.68100  Biso   1.000  C
  C80      1.0000 0.86800  0.28872  0.62350  Biso   1.000  C
  C81      1.0000 0.85820  0.26543  0.54630  Biso   1.000  C
  C82      1.0000 0.11690  0.22120  0.49500  Biso   1.000  C
  C83      1.0000 0.15550  0.18120  0.49570  Biso   1.000  C
  C84      1.0000 0.07660  0.14950  0.48130  Biso   1.000  C
  C85      1.0000 0.95520  0.15720  0.46390  Biso   1.000  C
  C86      1.0000 0.73080  0.20241  0.87350  Biso   1.000  C
  C87      1.0000 0.82250  0.19980  0.95110  Biso   1.000  C
  C88      1.0000 0.90620  0.22940  0.97050  Biso   1.000  C
  C89      1.0000 0.90190  0.26270  0.91390  Biso   1.000  C
  C90      1.0000 0.84950  0.27259  0.38640  Biso   1.000  C
  C91      1.0000 0.76960  0.24088  0.36940  Biso   1.000  C
  C92      1.0000 0.68330  0.23914  0.29010  Biso   1.000  C
  C93      1.0000 0.68070  0.26990  0.22740  Biso   1.000  C
  C94      1.0000 0.76070  0.30120  0.24390  Biso   1.000  C
  C95      1.0000 0.84630  0.30298  0.32250  Biso   1.000  C
  C96      1.0000 0.66530  0.31521  0.75920  Biso   1.000  C
  C97      1.0000 0.58160  0.28437  0.73910  Biso   1.000  C
  C98      1.0000 0.46190  0.29350  0.72470  Biso   1.000  C
  C99      1.0000 0.42740  0.33370  0.73180  Biso   1.000  C
  C100     1.0000 0.51280  0.36320  0.75160  Biso   1.000  C
  C101     1.0000 0.63100  0.35470  0.76580  Biso   1.000  C
  C102     1.0000 0.62760  0.18916  0.57100  Biso   1.000  C
  C103     1.0000 0.56000  0.16160  0.56440  Biso   1.000  C
  C104     1.0000 0.47050  0.13078  0.55430  Biso   1.000  C
  Zn2      1.0000 0.03447  0.98261  0.42055  Biso   1.000  Zn
  O5       1.0000 0.16110  0.02462  0.45140  Biso   1.000  O
  O6       1.0000 0.11720  0.04811  0.57790  Biso   1.000  O
  O7       1.0000 0.42820  0.47845  0.83280  Biso   1.000  O
  O8       1.0000 0.38250  0.45347  0.95840  Biso   1.000  O
  H29      1.0000 0.45430  0.13160  0.68200  Biso   1.000  H
  H30      1.0000 0.29340  0.08660  0.66400  Biso   1.000  H
  H31      1.0000 0.30630  0.07100  0.40600  Biso   1.000  H
  H32      1.0000 0.45940  0.11840  0.42470  Biso   1.000  H
  H33      1.0000 0.07970  0.36150  0.83550  Biso   1.000  H
  H34      1.0000 0.22140  0.40470  0.92270  Biso   1.000  H
  H35      1.0000 0.30270  0.44600  0.69850  Biso   1.000  H
  H36      1.0000 0.16050  0.40140  0.61050  Biso   1.000  H
  H37      1.0000 0.99140  0.29210  0.48880  Biso   1.000  H
  H38      1.0000 0.73250  0.18720  0.43210  Biso   1.000  H
  H39      1.0000 0.57780  0.22080  0.71660  Biso   1.000  H
  H40      1.0000 0.85460  0.32000  0.78590  Biso   1.000  H
  H41      1.0000 0.17130  0.24300  0.50730  Biso   1.000  H
  H42      1.0000 0.23750  0.17590  0.50590  Biso   1.000  H
  H43      1.0000 0.10470  0.12280  0.48330  Biso   1.000  H
  H44      1.0000 0.90130  0.13580  0.45260  Biso   1.000  H
  H45      1.0000 0.67350  0.18170  0.85910  Biso   1.000  H
  H46      1.0000 0.82600  0.17730  0.98790  Biso   1.000  H
  H47      1.0000 0.96740  0.22740  0.02180  Biso   1.000  H
  H48      1.0000 0.96110  0.28300  0.92670  Biso   1.000  H
  H49      1.0000 0.62960  0.21720  0.27950  Biso   1.000  H
  H50      1.0000 0.62290  0.26940  0.17250  Biso   1.000  H
  H51      1.0000 0.75620  0.32180  0.20060  Biso   1.000  H
  H52      1.0000 0.90230  0.32420  0.33430  Biso   1.000  H
  H53      1.0000 0.40470  0.27250  0.71020  Biso   1.000  H
  H54      1.0000 0.34770  0.34020  0.72240  Biso   1.000  H
  H55      1.0000 0.48940  0.39010  0.75570  Biso   1.000  H
  H56      1.0000 0.68960  0.37510  0.77970  Biso   1.000  H
  C105     1.0000 0.92240  0.37988  0.12540  Biso   1.000  C
  C106     1.0000 0.82820  0.40723  0.11580  Biso   1.000  C
  C107     1.0000 0.78670  0.42535  0.03460  Biso   1.000  C
  C108     1.0000 0.83530  0.41648  0.96140  Biso   1.000  C
  C109     1.0000 0.92620  0.38791  0.97300  Biso   1.000  C
  C110     1.0000 0.68030  0.45322  0.01880  Biso   1.000  C
  C111     1.0000 0.45390  0.17860  0.14610  Biso   1.000  C
  C112     1.0000 0.52220  0.15172  0.16930  Biso   1.000  C
  C113     1.0000 0.60620  0.12262  0.21600  Biso   1.000  C
  C114     1.0000 0.62520  0.12106  0.30790  Biso   1.000  C
  C115     1.0000 0.70970  0.09569  0.35990  Biso   1.000  C
  C116     1.0000 0.77470  0.07059  0.31820  Biso   1.000  C
  C117     1.0000 0.75690  0.07139  0.22620  Biso   1.000  C
  C118     1.0000 0.67240  0.09765  0.17380  Biso   1.000  C
  C119     1.0000 0.86900  0.04408  0.37330  Biso   1.000  C
  C120     1.0000 0.43540  0.23079  0.97660  Biso   1.000  C
  C121     1.0000 0.49620  0.27108  0.97860  Biso   1.000  C
  C122     1.0000 0.41530  0.30325  0.96260  Biso   1.000  C
  C123     1.0000 0.28810  0.28971  0.94450  Biso   1.000  C
  C124     1.0000 0.27910  0.26601  0.02790  Biso   1.000  C
  C125     1.0000 0.20460  0.27609  0.08520  Biso   1.000  C
  C126     1.0000 0.21170  0.25227  0.16190  Biso   1.000  C
  C127     1.0000 0.13720  0.25745  0.23150  Biso   1.000  C
  C128     1.0000 0.22730  0.26445  0.31900  Biso   1.000  C
  C129     1.0000 0.31200  0.23398  0.33950  Biso   1.000  C
  C130     1.0000 0.29280  0.20047  0.26980  Biso   1.000  C
  C131     1.0000 0.29430  0.22104  0.18100  Biso   1.000  C
  C132     1.0000 0.36800  0.21128  0.12350  Biso   1.000  C
  C133     1.0000 0.35820  0.23457  0.04630  Biso   1.000  C
  C134     1.0000 0.61690  0.27880  0.99500  Biso   1.000  C
  C135     1.0000 0.65550  0.31880  0.99570  Biso   1.000  C
  C136     1.0000 0.57660  0.35050  0.98130  Biso   1.000  C
  C137     1.0000 0.45520  0.34280  0.96390  Biso   1.000  C
  C138     1.0000 0.23080  0.29759  0.37350  Biso   1.000  C
  C139     1.0000 0.32250  0.30020  0.45110  Biso   1.000  C
  C140     1.0000 0.40620  0.27060  0.47050  Biso   1.000  C
  C141     1.0000 0.40190  0.23730  0.41390  Biso   1.000  C
  C142     1.0000 0.34950  0.22741  0.88640  Biso   1.000  C
  C143     1.0000 0.26960  0.25912  0.86940  Biso   1.000  C
  C144     1.0000 0.18330  0.26086  0.79010  Biso   1.000  C
  C145     1.0000 0.18070  0.23010  0.72740  Biso   1.000  C
  C146     1.0000 0.26070  0.19880  0.74390  Biso   1.000  C
  C147     1.0000 0.34630  0.19702  0.82250  Biso   1.000  C
  C148     1.0000 0.16530  0.18479  0.25920  Biso   1.000  C
  C149     1.0000 0.08160  0.21563  0.23910  Biso   1.000  C
  C150     1.0000 0.96190  0.20650  0.22470  Biso   1.000  C
  C151     1.0000 0.92740  0.16630  0.23180  Biso   1.000  C
  C152     1.0000 0.01280  0.13680  0.25160  Biso   1.000  C
  C153     1.0000 0.13100  0.14530  0.26580  Biso   1.000  C
  C154     1.0000 0.12760  0.31084  0.07100  Biso   1.000  C
  C155     1.0000 0.06000  0.33840  0.06440  Biso   1.000  C
  C156     1.0000 0.97050  0.36922  0.05430  Biso   1.000  C
  Zn3      1.0000 0.53447  0.51739  0.92055  Biso   1.000  Zn
  O9       1.0000 0.66110  0.47538  0.95140  Biso   1.000  O
  O10      1.0000 0.61720  0.45189  0.07790  Biso   1.000  O
  O11      1.0000 0.92820  0.02155  0.33280  Biso   1.000  O
  O12      1.0000 0.88250  0.04653  0.45840  Biso   1.000  O
  H57      1.0000 0.95430  0.36840  0.18200  Biso   1.000  H
  H58      1.0000 0.79340  0.41340  0.16400  Biso   1.000  H
  H59      1.0000 0.80630  0.42900  0.90600  Biso   1.000  H
  H60      1.0000 0.95940  0.38160  0.92470  Biso   1.000  H
  H61      1.0000 0.57970  0.13850  0.33550  Biso   1.000  H
  H62      1.0000 0.72140  0.09530  0.42270  Biso   1.000  H
  H63      1.0000 0.80270  0.05400  0.19850  Biso   1.000  H
  H64      1.0000 0.66050  0.09860  0.11050  Biso   1.000  H
  H65      1.0000 0.49140  0.20790  0.98880  Biso   1.000  H
  H66      1.0000 0.23250  0.31280  0.93210  Biso   1.000  H
  H67      1.0000 0.07780  0.27920  0.21660  Biso   1.000  H
  H68      1.0000 0.35460  0.18000  0.28590  Biso   1.000  H
  H69      1.0000 0.67130  0.25700  0.00730  Biso   1.000  H
  H70      1.0000 0.73750  0.32410  0.00590  Biso   1.000  H
  H71      1.0000 0.60470  0.37720  0.98330  Biso   1.000  H
  H72      1.0000 0.40130  0.36420  0.95260  Biso   1.000  H
  H73      1.0000 0.17350  0.31830  0.35910  Biso   1.000  H
  H74      1.0000 0.32600  0.32270  0.48790  Biso   1.000  H
  H75      1.0000 0.46740  0.27260  0.52180  Biso   1.000  H
  H76      1.0000 0.46110  0.21700  0.42670  Biso   1.000  H
  H77      1.0000 0.12960  0.28280  0.77950  Biso   1.000  H
  H78      1.0000 0.12290  0.23060  0.67250  Biso   1.000  H
  H79      1.0000 0.25620  0.17820  0.70060  Biso   1.000  H
  H80      1.0000 0.40230  0.17580  0.83430  Biso   1.000  H
  H81      1.0000 0.90470  0.22750  0.21020  Biso   1.000  H
  H82      1.0000 0.84770  0.15980  0.22240  Biso   1.000  H
  H83      1.0000 0.98940  0.10990  0.25570  Biso   1.000  H
  H84      1.0000 0.18960  0.12490  0.27970  Biso   1.000  H
  C157     1.0000 0.57760  0.87988  0.37460  Biso   1.000  C
  C158     1.0000 0.67180  0.90723  0.38420  Biso   1.000  C
  C159     1.0000 0.71330  0.92535  0.46540  Biso   1.000  C
  C160     1.0000 0.66470  0.91648  0.53860  Biso   1.000  C
  C161     1.0000 0.57380  0.88791  0.52700  Biso   1.000  C
  C162     1.0000 0.81970  0.95322  0.48120  Biso   1.000  C
  C163     1.0000 0.04610  0.67860  0.35390  Biso   1.000  C
  C164     1.0000 0.97780  0.65172  0.33070  Biso   1.000  C
  C165     1.0000 0.89380  0.62262  0.28400  Biso   1.000  C
  C166     1.0000 0.87480  0.62106  0.19210  Biso   1.000  C
  C167     1.0000 0.79030  0.59569  0.14010  Biso   1.000  C
  C168     1.0000 0.72530  0.57059  0.18180  Biso   1.000  C
  C169     1.0000 0.74310  0.57139  0.27380  Biso   1.000  C
  C170     1.0000 0.82760  0.59765  0.32620  Biso   1.000  C
  C171     1.0000 0.63100  0.54408  0.12670  Biso   1.000  C
  C172     1.0000 0.06460  0.73079  0.52340  Biso   1.000  C
  C173     1.0000 0.00380  0.77108  0.52140  Biso   1.000  C
  C174     1.0000 0.08470  0.80325  0.53740  Biso   1.000  C
  C175     1.0000 0.21190  0.78971  0.55550  Biso   1.000  C
  C176     1.0000 0.22090  0.76601  0.47210  Biso   1.000  C
  C177     1.0000 0.29540  0.77609  0.41480  Biso   1.000  C
  C178     1.0000 0.28830  0.75227  0.33810  Biso   1.000  C
  C179     1.0000 0.36280  0.75745  0.26850  Biso   1.000  C
  C180     1.0000 0.27270  0.76445  0.18100  Biso   1.000  C
  C181     1.0000 0.18800  0.73398  0.16050  Biso   1.000  C
  C182     1.0000 0.20720  0.70047  0.23020  Biso   1.000  C
  C183     1.0000 0.20570  0.72104  0.31900  Biso   1.000  C
  C184     1.0000 0.13200  0.71128  0.37650  Biso   1.000  C
  C185     1.0000 0.14180  0.73457  0.45370  Biso   1.000  C
  C186     1.0000 0.88310  0.77880  0.50500  Biso   1.000  C
  C187     1.0000 0.84450  0.81880  0.50430  Biso   1.000  C
  C188     1.0000 0.92340  0.85050  0.51870  Biso   1.000  C
  C189     1.0000 0.04480  0.84280  0.53610  Biso   1.000  C
  C190     1.0000 0.26920  0.79759  0.12650  Biso   1.000  C
  C191     1.0000 0.17750  0.80020  0.04890  Biso   1.000  C
  C192     1.0000 0.09380  0.77060  0.02950  Biso   1.000  C
  C193     1.0000 0.09810  0.73730  0.08610  Biso   1.000  C
  C194     1.0000 0.15050  0.72741  0.61360  Biso   1.000  C
  C195     1.0000 0.23040  0.75912  0.63060  Biso   1.000  C
  C196     1.0000 0.31670  0.76086  0.70990  Biso   1.000  C
  C197     1.0000 0.31930  0.73010  0.77260  Biso   1.000  C
  C198     1.0000 0.23930  0.69880  0.75610  Biso   1.000  C
  C199     1.0000 0.15370  0.69702  0.67750  Biso   1.000  C
  C200     1.0000 0.33470  0.68479  0.24080  Biso   1.000  C
  C201     1.0000 0.41840  0.71563  0.26090  Biso   1.000  C
  C202     1.0000 0.53810  0.70650  0.27530  Biso   1.000  C
  C203     1.0000 0.57260  0.66630  0.26820  Biso   1.000  C
  C204     1.0000 0.48720  0.63680  0.24840  Biso   1.000  C
  C205     1.0000 0.36900  0.64530  0.23420  Biso   1.000  C
  C206     1.0000 0.37240  0.81084  0.42900  Biso   1.000  C
  C207     1.0000 0.44000  0.83840  0.43560  Biso   1.000  C
  C208     1.0000 0.52950  0.86922  0.44570  Biso   1.000  C
  Zn4      1.0000 0.96553  0.01739  0.57945  Biso   1.000  Zn
  O13      1.0000 0.83890  0.97538  0.54860  Biso   1.000  O
  O14      1.0000 0.88280  0.95189  0.42210  Biso   1.000  O
  O15      1.0000 0.57180  0.52155  0.16720  Biso   1.000  O
  O16      1.0000 0.61750  0.54653  0.04160  Biso   1.000  O
  H85      1.0000 0.54570  0.86840  0.31800  Biso   1.000  H
  H86      1.0000 0.70660  0.91340  0.33600  Biso   1.000  H
  H87      1.0000 0.69370  0.92900  0.59400  Biso   1.000  H
  H88      1.0000 0.54060  0.88160  0.57530  Biso   1.000  H
  H89      1.0000 0.92030  0.63850  0.16450  Biso   1.000  H
  H90      1.0000 0.77860  0.59530  0.07730  Biso   1.000  H
  H91      1.0000 0.69730  0.55400  0.30150  Biso   1.000  H
  H92      1.0000 0.83950  0.59860  0.38950  Biso   1.000  H
  H93      1.0000 0.00860  0.70790  0.51120  Biso   1.000  H
  H94      1.0000 0.26750  0.81280  0.56790  Biso   1.000  H
  H95      1.0000 0.42220  0.77920  0.28340  Biso   1.000  H
  H96      1.0000 0.14540  0.68000  0.21410  Biso   1.000  H
  H97      1.0000 0.82870  0.75700  0.49270  Biso   1.000  H
  H98      1.0000 0.76250  0.82410  0.49410  Biso   1.000  H
  H99      1.0000 0.89530  0.87720  0.51670  Biso   1.000  H
  H100     1.0000 0.09870  0.86420  0.54740  Biso   1.000  H
  H101     1.0000 0.32650  0.81830  0.14090  Biso   1.000  H
  H102     1.0000 0.17400  0.82270  0.01210  Biso   1.000  H
  H103     1.0000 0.03260  0.77260  0.97820  Biso   1.000  H
  H104     1.0000 0.03890  0.71700  0.07330  Biso   1.000  H
  H105     1.0000 0.37040  0.78280  0.72050  Biso   1.000  H
  H106     1.0000 0.37710  0.73060  0.82750  Biso   1.000  H
  H107     1.0000 0.24380  0.67820  0.79940  Biso   1.000  H
  H108     1.0000 0.09770  0.67580  0.66570  Biso   1.000  H
  H109     1.0000 0.59530  0.72750  0.28980  Biso   1.000  H
  H110     1.0000 0.65230  0.65980  0.27760  Biso   1.000  H
  H111     1.0000 0.51060  0.60990  0.24430  Biso   1.000  H
  H112     1.0000 0.31040  0.62490  0.22030  Biso   1.000  H
