data_image0
_cell_length_a       9.2565
_cell_length_b       10.1736
_cell_length_c       15.405
_cell_angle_alpha    95.282
_cell_angle_beta     105.188
_cell_angle_gamma    91.394

_symmetry_space_group_name_H-M    "P 1"
_symmetry_int_tables_number       1

loop_
  _symmetry_equiv_pos_as_xyz
  'x, y, z'

loop_
  _atom_site_label
  _atom_site_occupancy
  _atom_site_fract_x
  _atom_site_fract_y
  _atom_site_fract_z
  _atom_site_thermal_displace_type
  _atom_site_B_iso_or_equiv
  _atom_site_type_symbol
  Co1      1.0000 0.66282  0.91829  0.19192  Biso   1.000  Co
  Co2      1.0000 0.30074  0.58265  0.93341  Biso   1.000  Co
  P1       1.0000 0.61607  0.71252  0.00263  Biso   1.000  P
  O1       1.0000 0.67120  0.60442  0.06220  Biso   1.000  O
  O2       1.0000 0.58190  0.83341  0.05928  Biso   1.000  O
  O3       1.0000 0.48570  0.66650  0.92107  Biso   1.000  O
  O4       1.0000 0.51900  0.94445  0.86779  Biso   1.000  O
  O5       1.0000 0.59340  0.87300  0.74726  Biso   1.000  O
  O6       1.0000 0.16460  0.98114  0.83916  Biso   1.000  O
  O7       1.0000 0.29230  0.90533  0.96776  Biso   1.000  O
  O8       1.0000 0.25050  0.65059  0.04393  Biso   1.000  O
  O9       1.0000 0.21710  0.81805  0.13852  Biso   1.000  O
  N1       1.0000 0.14320  0.60830  0.82023  Biso   1.000  N
  N2       1.0000 0.93020  0.61770  0.71642  Biso   1.000  N
  N3       1.0000 0.95440  0.28490  0.68360  Biso   1.000  N
  N4       1.0000 0.17350  0.20280  0.74147  Biso   1.000  N
  C1       1.0000 0.77000  0.76830  0.96085  Biso   1.000  C
  C2       1.0000 0.75920  0.84720  0.88924  Biso   1.000  C
  C3       1.0000 0.89200  0.89000  0.87051  Biso   1.000  C
  H1       1.0000 0.88580  0.93810  0.81980  Biso   1.000  H
  C4       1.0000 0.03240  0.86410  0.92399  Biso   1.000  C
  C5       1.0000 0.04190  0.78720  0.99588  Biso   1.000  C
  C6       1.0000 0.91080  0.73780  0.01100  Biso   1.000  C
  H2       1.0000 0.91740  0.68100  0.05740  Biso   1.000  H
  C7       1.0000 0.61330  0.89070  0.83108  Biso   1.000  C
  C8       1.0000 0.17430  0.92140  0.90843  Biso   1.000  C
  C9       1.0000 0.18310  0.75420  0.06349  Biso   1.000  C
  C10      1.0000 0.99700  0.58070  0.79824  Biso   1.000  C
  H3       1.0000 0.94580  0.54010  0.83550  Biso   1.000  H
  C11      1.0000 0.17020  0.66730  0.74860  Biso   1.000  C
  H4       1.0000 0.26550  0.69930  0.74490  Biso   1.000  H
  C12      1.0000 0.04000  0.67260  0.68460  Biso   1.000  C
  H5       1.0000 0.02710  0.70770  0.62810  Biso   1.000  H
  C13      1.0000 0.76870  0.60500  0.67110  Biso   1.000  C
  H6       1.0000 0.73280  0.69360  0.65750  Biso   1.000  H
  H7       1.0000 0.71490  0.57170  0.71300  Biso   1.000  H
  C14      1.0000 0.73040  0.51370  0.58477  Biso   1.000  C
  C15      1.0000 0.67910  0.56740  0.50290  Biso   1.000  C
  H8       1.0000 0.67740  0.66070  0.50250  Biso   1.000  H
  C16      1.0000 0.63080  0.48750  0.42230  Biso   1.000  C
  H9       1.0000 0.59500  0.52580  0.36710  Biso   1.000  H
  C17      1.0000 0.63470  0.35160  0.42210  Biso   1.000  C
  H10      1.0000 0.60090  0.29600  0.36700  Biso   1.000  H
  C18      1.0000 0.68810  0.29760  0.50260  Biso   1.000  C
  H11      1.0000 0.69220  0.20440  0.50220  Biso   1.000  H
  C19      1.0000 0.73570  0.37590  0.58403  Biso   1.000  C
  C20      1.0000 0.79400  0.31030  0.66930  Biso   1.000  C
  H12      1.0000 0.78010  0.36790  0.72160  Biso   1.000  H
  H13      1.0000 0.73620  0.22570  0.66510  Biso   1.000  H
  C21      1.0000 0.03280  0.21000  0.74530  Biso   1.000  C
  H14      1.0000 0.99210  0.16750  0.78670  Biso   1.000  H
  C22      1.0000 0.05130  0.32760  0.63710  Biso   1.000  C
  H15      1.0000 0.02890  0.38210  0.58890  Biso   1.000  H
  C23      1.0000 0.18420  0.27730  0.67300  Biso   1.000  C
  H16      1.0000 0.27250  0.29120  0.65400  Biso   1.000  H
  Co3      1.0000 0.33718  0.08171  0.80808  Biso   1.000  Co
  Co4      1.0000 0.69926  0.41735  0.06659  Biso   1.000  Co
  P2       1.0000 0.38393  0.28748  0.99737  Biso   1.000  P
  O10      1.0000 0.32880  0.39558  0.93780  Biso   1.000  O
  O11      1.0000 0.41810  0.16659  0.94072  Biso   1.000  O
  O12      1.0000 0.51430  0.33350  0.07893  Biso   1.000  O
  O13      1.0000 0.48100  0.05555  0.13221  Biso   1.000  O
  O14      1.0000 0.40660  0.12700  0.25274  Biso   1.000  O
  O15      1.0000 0.83540  0.01886  0.16084  Biso   1.000  O
  O16      1.0000 0.70770  0.09467  0.03224  Biso   1.000  O
  O17      1.0000 0.74950  0.34941  0.95607  Biso   1.000  O
  O18      1.0000 0.78290  0.18195  0.86148  Biso   1.000  O
  N5       1.0000 0.85680  0.39170  0.17977  Biso   1.000  N
  N6       1.0000 0.06980  0.38230  0.28358  Biso   1.000  N
  N7       1.0000 0.04560  0.71510  0.31640  Biso   1.000  N
  N8       1.0000 0.82650  0.79720  0.25853  Biso   1.000  N
  C24      1.0000 0.23000  0.23170  0.03915  Biso   1.000  C
  C25      1.0000 0.24080  0.15280  0.11076  Biso   1.000  C
  C26      1.0000 0.10800  0.11000  0.12949  Biso   1.000  C
  H17      1.0000 0.11420  0.06190  0.18020  Biso   1.000  H
  C27      1.0000 0.96760  0.13590  0.07601  Biso   1.000  C
  C28      1.0000 0.95810  0.21280  0.00412  Biso   1.000  C
  C29      1.0000 0.08920  0.26220  0.98900  Biso   1.000  C
  H18      1.0000 0.08260  0.31900  0.94260  Biso   1.000  H
  C30      1.0000 0.38670  0.10930  0.16892  Biso   1.000  C
  C31      1.0000 0.82570  0.07860  0.09157  Biso   1.000  C
  C32      1.0000 0.81690  0.24580  0.93651  Biso   1.000  C
  C33      1.0000 0.00300  0.41930  0.20176  Biso   1.000  C
  H19      1.0000 0.05420  0.45990  0.16450  Biso   1.000  H
  C34      1.0000 0.82980  0.33270  0.25140  Biso   1.000  C
  H20      1.0000 0.73450  0.30070  0.25510  Biso   1.000  H
  C35      1.0000 0.96000  0.32740  0.31540  Biso   1.000  C
  H21      1.0000 0.97290  0.29230  0.37190  Biso   1.000  H
  C36      1.0000 0.23130  0.39500  0.32890  Biso   1.000  C
  H22      1.0000 0.26720  0.30640  0.34250  Biso   1.000  H
  H23      1.0000 0.28510  0.42830  0.28700  Biso   1.000  H
  C37      1.0000 0.26960  0.48630  0.41523  Biso   1.000  C
  C38      1.0000 0.32090  0.43260  0.49710  Biso   1.000  C
  H24      1.0000 0.32260  0.33930  0.49750  Biso   1.000  H
  C39      1.0000 0.36920  0.51250  0.57770  Biso   1.000  C
  H25      1.0000 0.40500  0.47420  0.63290  Biso   1.000  H
  C40      1.0000 0.36530  0.64840  0.57790  Biso   1.000  C
  H26      1.0000 0.39910  0.70400  0.63300  Biso   1.000  H
  C41      1.0000 0.31190  0.70240  0.49740  Biso   1.000  C
  H27      1.0000 0.30780  0.79560  0.49780  Biso   1.000  H
  C42      1.0000 0.26430  0.62410  0.41597  Biso   1.000  C
  C43      1.0000 0.20600  0.68970  0.33070  Biso   1.000  C
  H28      1.0000 0.21990  0.63210  0.27840  Biso   1.000  H
  H29      1.0000 0.26380  0.77430  0.33490  Biso   1.000  H
  C44      1.0000 0.96720  0.79000  0.25470  Biso   1.000  C
  H30      1.0000 0.00790  0.83250  0.21330  Biso   1.000  H
  C45      1.0000 0.94870  0.67240  0.36290  Biso   1.000  C
  H31      1.0000 0.97110  0.61790  0.41110  Biso   1.000  H
  C46      1.0000 0.81580  0.72270  0.32700  Biso   1.000  C
  H32      1.0000 0.72750  0.70880  0.34600  Biso   1.000  H
  Co5      1.0000 0.50000  0.00000  0.00000  Biso   1.000  Co
