data_image0
_cell_length_a       16.4455
_cell_length_b       15.0098
_cell_length_c       27.8995
_cell_angle_alpha    79.513
_cell_angle_beta     98.024
_cell_angle_gamma    105.156

_symmetry_space_group_name_H-M    "P 1"
_symmetry_int_tables_number       1

loop_
  _symmetry_equiv_pos_as_xyz
  'x, y, z'

loop_
  _atom_site_label
  _atom_site_occupancy
  _atom_site_fract_x
  _atom_site_fract_y
  _atom_site_fract_z
  _atom_site_thermal_displace_type
  _atom_site_B_iso_or_equiv
  _atom_site_type_symbol
  Cu1      1.0000 0.76192  0.45493  0.02571  Biso   1.000  Cu
  N1       1.0000 0.87370  0.44500  0.06303  Biso   1.000  N
  H1       1.0000 0.86810  0.44500  0.09760  Biso   1.000  H
  N2       1.0000 0.78660  0.59500  0.02303  Biso   1.000  N
  H2       1.0000 0.77350  0.60490  0.05460  Biso   1.000  H
  N3       1.0000 0.73830  0.31490  0.02903  Biso   1.000  N
  H3       1.0000 0.75090  0.30410  0.99760  Biso   1.000  H
  N4       1.0000 0.65100  0.46500  0.98753  Biso   1.000  N
  H4       1.0000 0.65850  0.46840  0.95300  Biso   1.000  H
  C1       1.0000 0.58850  0.29410  0.99516  Biso   1.000  C
  H5       1.0000 0.60900  0.29670  0.96390  Biso   1.000  H
  H6       1.0000 0.53420  0.24880  0.99620  Biso   1.000  H
  C2       1.0000 0.72250  0.62680  0.98590  Biso   1.000  C
  H7       1.0000 0.73800  0.63030  0.95320  Biso   1.000  H
  H8       1.0000 0.71840  0.68820  0.99000  Biso   1.000  H
  C3       1.0000 0.63890  0.55660  0.99311  Biso   1.000  C
  H9       1.0000 0.62240  0.55430  0.02550  Biso   1.000  H
  H10      1.0000 0.59500  0.57360  0.96890  Biso   1.000  H
  C4       1.0000 0.94740  0.52170  0.04918  Biso   1.000  C
  H11      1.0000 0.95580  0.52250  0.01540  Biso   1.000  H
  H12      1.0000 0.99760  0.51020  0.06950  Biso   1.000  H
  C5       1.0000 0.88490  0.35190  0.05927  Biso   1.000  C
  H13      1.0000 0.92810  0.33540  0.08420  Biso   1.000  H
  H14      1.0000 0.90220  0.35220  0.02740  Biso   1.000  H
  C6       1.0000 0.87380  0.65210  0.01657  Biso   1.000  C
  H15      1.0000 0.87680  0.71650  0.01920  Biso   1.000  H
  H16      1.0000 0.88800  0.65060  0.98420  Biso   1.000  H
  C7       1.0000 0.65020  0.26060  0.03584  Biso   1.000  C
  H17      1.0000 0.63540  0.26730  0.06720  Biso   1.000  H
  H18      1.0000 0.64620  0.19490  0.03590  Biso   1.000  H
  C8       1.0000 0.93670  0.61570  0.05486  Biso   1.000  C
  H19      1.0000 0.99120  0.66030  0.05340  Biso   1.000  H
  H20      1.0000 0.91850  0.61140  0.08700  Biso   1.000  H
  C9       1.0000 0.57540  0.38860  0.99822  Biso   1.000  C
  H21      1.0000 0.52800  0.39990  0.97510  Biso   1.000  H
  H22      1.0000 0.56120  0.38860  0.03080  Biso   1.000  H
  C10      1.0000 0.80190  0.28340  0.06636  Biso   1.000  C
  H23      1.0000 0.80560  0.22160  0.06260  Biso   1.000  H
  H24      1.0000 0.78610  0.28070  0.09890  Biso   1.000  H
  Cu2      1.0000 0.75023  0.79266  0.22149  Biso   1.000  Cu
  N5       1.0000 0.82690  0.71780  0.26117  Biso   1.000  N
  H25      1.0000 0.86680  0.75920  0.28180  Biso   1.000  H
  N6       1.0000 0.67940  0.87660  0.18203  Biso   1.000  N
  H26      1.0000 0.63350  0.83630  0.16390  Biso   1.000  H
  N7       1.0000 0.81660  0.79790  0.16446  Biso   1.000  N
  H27      1.0000 0.78510  0.74560  0.14750  Biso   1.000  H
  N8       1.0000 0.68920  0.79550  0.27865  Biso   1.000  N
  H28      1.0000 0.72600  0.84220  0.29760  Biso   1.000  H
  C11      1.0000 0.83040  0.88070  0.12615  Biso   1.000  C
  H29      1.0000 0.85080  0.86490  0.09860  Biso   1.000  H
  H30      1.0000 0.87450  0.92990  0.13890  Biso   1.000  H
  C12      1.0000 0.74220  0.66270  0.33154  Biso   1.000  C
  H31      1.0000 0.78390  0.70670  0.34940  Biso   1.000  H
  H32      1.0000 0.72320  0.60690  0.35480  Biso   1.000  H
  C13      1.0000 0.66770  0.70440  0.31330  Biso   1.000  C
  H33      1.0000 0.64420  0.71500  0.34120  Biso   1.000  H
  H34      1.0000 0.62440  0.65990  0.29670  Biso   1.000  H
  C14      1.0000 0.71830  0.95320  0.14581  Biso   1.000  C
  H35      1.0000 0.76340  0.99650  0.16210  Biso   1.000  H
  H36      1.0000 0.67640  0.98660  0.12970  Biso   1.000  H
  C15      1.0000 0.89610  0.77490  0.18540  Biso   1.000  C
  H37      1.0000 0.93490  0.82870  0.19740  Biso   1.000  H
  H38      1.0000 0.92200  0.75690  0.16070  Biso   1.000  H
  C16      1.0000 0.87710  0.69500  0.22709  Biso   1.000  C
  H39      1.0000 0.84580  0.63860  0.21420  Biso   1.000  H
  H40      1.0000 0.92970  0.68370  0.24450  Biso   1.000  H
  C17      1.0000 0.63890  0.90820  0.21820  Biso   1.000  C
  H41      1.0000 0.67800  0.96050  0.23140  Biso   1.000  H
  H42      1.0000 0.58900  0.92830  0.20240  Biso   1.000  H
  C18      1.0000 0.61510  0.82980  0.25810  Biso   1.000  C
  H43      1.0000 0.59270  0.85060  0.28330  Biso   1.000  H
  H44      1.0000 0.57150  0.78000  0.24540  Biso   1.000  H
  C19      1.0000 0.75360  0.91760  0.10820  Biso   1.000  C
  H45      1.0000 0.70970  0.86820  0.09540  Biso   1.000  H
  H46      1.0000 0.76760  0.96790  0.08120  Biso   1.000  H
  C20      1.0000 0.78570  0.63690  0.29404  Biso   1.000  C
  H47      1.0000 0.82770  0.60400  0.31070  Biso   1.000  H
  H48      1.0000 0.74440  0.59480  0.27500  Biso   1.000  H
  Cu3      1.0000 0.77419  0.24102  0.28258  Biso   1.000  Cu
  N9       1.0000 0.77460  0.21370  0.21433  Biso   1.000  N
  H49      1.0000 0.80100  0.27280  0.19480  Biso   1.000  H
  N10      1.0000 0.77160  0.27000  0.35003  Biso   1.000  N
  H50      1.0000 0.73350  0.21560  0.36720  Biso   1.000  H
  N11      1.0000 0.87220  0.18000  0.30138  Biso   1.000  N
  H51      1.0000 0.84860  0.11410  0.31380  Biso   1.000  H
  N12      1.0000 0.68310  0.31170  0.26114  Biso   1.000  N
  H52      1.0000 0.71030  0.37280  0.24370  Biso   1.000  H
  C21      1.0000 0.85110  0.28850  0.38235  Biso   1.000  C
  H53      1.0000 0.83800  0.29100  0.41490  Biso   1.000  H
  H54      1.0000 0.88580  0.34930  0.37020  Biso   1.000  H
  C22      1.0000 0.68990  0.17980  0.18881  Biso   1.000  C
  H55      1.0000 0.66030  0.12280  0.20790  Biso   1.000  H
  H56      1.0000 0.69630  0.16550  0.15720  Biso   1.000  H
  C23      1.0000 0.83160  0.15150  0.21808  Biso   1.000  C
  H57      1.0000 0.85080  0.15450  0.18640  Biso   1.000  H
  H58      1.0000 0.80240  0.08750  0.22910  Biso   1.000  H
  C24      1.0000 0.65400  0.32910  0.30597  Biso   1.000  C
  H59      1.0000 0.61170  0.27500  0.31890  Biso   1.000  H
  H60      1.0000 0.62880  0.38230  0.29820  Biso   1.000  H
  C25      1.0000 0.72930  0.34820  0.34319  Biso   1.000  C
  H61      1.0000 0.76840  0.40650  0.33190  Biso   1.000  H
  H62      1.0000 0.71130  0.35320  0.37400  Biso   1.000  H
  C26      1.0000 0.90590  0.18330  0.25428  Biso   1.000  C
  H63      1.0000 0.94420  0.14250  0.25850  Biso   1.000  H
  H64      1.0000 0.93660  0.24630  0.24260  Biso   1.000  H
  C27      1.0000 0.90160  0.21600  0.38606  Biso   1.000  C
  H65      1.0000 0.86520  0.15460  0.39510  Biso   1.000  H
  H66      1.0000 0.94730  0.22630  0.41200  Biso   1.000  H
  C28      1.0000 0.63840  0.25150  0.18150  Biso   1.000  C
  H67      1.0000 0.58820  0.23150  0.15960  Biso   1.000  H
  H68      1.0000 0.67130  0.31000  0.16540  Biso   1.000  H
  C29      1.0000 0.93870  0.21730  0.33888  Biso   1.000  C
  H69      1.0000 0.96720  0.28080  0.32650  Biso   1.000  H
  H70      1.0000 0.98030  0.18000  0.34560  Biso   1.000  H
  C30      1.0000 0.61100  0.26920  0.22750  Biso   1.000  C
  H71      1.0000 0.57290  0.31050  0.21860  Biso   1.000  H
  H72      1.0000 0.58000  0.21060  0.24450  Biso   1.000  H
  Cu4      1.0000 0.24537  0.06182  0.47527  Biso   1.000  Cu
  N13      1.0000 0.28970  0.19770  0.48218  Biso   1.000  N
  H73      1.0000 0.27940  0.20430  0.51500  Biso   1.000  H
  N14      1.0000 0.14270  0.10050  0.43888  Biso   1.000  N
  H74      1.0000 0.14950  0.10730  0.40400  Biso   1.000  H
  N15      1.0000 0.34720  0.02340  0.51378  Biso   1.000  N
  H75      1.0000 0.33790  0.01510  0.54840  Biso   1.000  H
  N16      1.0000 0.20030  0.92600  0.46823  Biso   1.000  N
  H76      1.0000 0.21150  0.91980  0.43560  Biso   1.000  H
  C31      1.0000 0.25330  0.87440  0.50362  Biso   1.000  C
  H77      1.0000 0.24760  0.81330  0.49480  Biso   1.000  H
  H78      1.0000 0.23550  0.86600  0.53620  Biso   1.000  H
  C32      1.0000 0.43380  0.18470  0.51678  Biso   1.000  C
  H79      1.0000 0.41360  0.18090  0.54830  Biso   1.000  H
  H80      1.0000 0.49210  0.22080  0.51820  Biso   1.000  H
  C33      1.0000 0.38160  0.23610  0.47781  Biso   1.000  C
  H81      1.0000 0.39670  0.30190  0.48100  Biso   1.000  H
  H82      1.0000 0.39430  0.23080  0.44570  Biso   1.000  H
  C34      1.0000 0.14710  0.19530  0.44903  Biso   1.000  C
  H83      1.0000 0.12930  0.19170  0.48120  Biso   1.000  H
  H84      1.0000 0.11040  0.22520  0.42480  Biso   1.000  H
  C35      1.0000 0.10820  0.88520  0.47181  Biso   1.000  C
  H85      1.0000 0.09540  0.88410  0.50480  Biso   1.000  H
  H86      1.0000 0.09400  0.82120  0.46540  Biso   1.000  H
  C36      1.0000 0.05980  0.03650  0.44630  Biso   1.000  C
  H87      1.0000 0.01660  0.06170  0.42510  Biso   1.000  H
  H88      1.0000 0.04820  0.03220  0.47990  Biso   1.000  H
  C37      1.0000 0.34390  0.92970  0.50287  Biso   1.000  C
  H89      1.0000 0.38010  0.89930  0.52730  Biso   1.000  H
  H90      1.0000 0.36320  0.93470  0.47090  Biso   1.000  H
  C38      1.0000 0.23720  0.24950  0.44685  Biso   1.000  C
  H91      1.0000 0.25390  0.25640  0.41410  Biso   1.000  H
  H92      1.0000 0.24410  0.31130  0.45510  Biso   1.000  H
  C39      1.0000 0.43130  0.08700  0.50856  Biso   1.000  C
  H93      1.0000 0.44690  0.08960  0.47600  Biso   1.000  H
  H94      1.0000 0.47260  0.06250  0.53200  Biso   1.000  H
  C40      1.0000 0.05480  0.94020  0.43591  Biso   1.000  C
  H95      1.0000 0.07200  0.94580  0.40340  Biso   1.000  H
  H96      1.0000 0.99620  0.90500  0.43560  Biso   1.000  H
  Cu5      1.0000 0.24978  0.77829  0.25168  Biso   1.000  Cu
  N17      1.0000 0.16720  0.80730  0.29037  Biso   1.000  N
  H97      1.0000 0.19980  0.85320  0.31110  Biso   1.000  H
  N18      1.0000 0.20810  0.86520  0.19558  Biso   1.000  N
  H98      1.0000 0.16600  0.82590  0.17480  Biso   1.000  H
  N19      1.0000 0.29270  0.69440  0.30899  Biso   1.000  N
  H99      1.0000 0.33230  0.73550  0.33000  Biso   1.000  H
  N20      1.0000 0.33260  0.74870  0.21331  Biso   1.000  N
  H100     1.0000 0.30080  0.69870  0.19490  Biso   1.000  H
  C41      1.0000 0.16220  0.91900  0.21654  Biso   1.000  C
  H101     1.0000 0.12560  0.94640  0.19100  Biso   1.000  H
  H102     1.0000 0.20210  0.96900  0.23120  Biso   1.000  H
  C42      1.0000 0.31700  0.86930  0.14171  Biso   1.000  C
  H103     1.0000 0.27520  0.82040  0.12730  Biso   1.000  H
  H104     1.0000 0.34820  0.90960  0.11560  Biso   1.000  H
  C43      1.0000 0.37700  0.82570  0.17777  Biso   1.000  C
  H105     1.0000 0.41160  0.80170  0.16030  Biso   1.000  H
  H106     1.0000 0.41430  0.87310  0.19540  Biso   1.000  H
  C44      1.0000 0.27120  0.92640  0.16342  Biso   1.000  C
  H107     1.0000 0.31210  0.96950  0.18210  Biso   1.000  H
  H108     1.0000 0.24300  0.96270  0.13720  Biso   1.000  H
  C45      1.0000 0.22990  0.63140  0.34053  Biso   1.000  C
  H109     1.0000 0.25910  0.59740  0.36740  Biso   1.000  H
  H110     1.0000 0.19230  0.58610  0.32160  Biso   1.000  H
  C46      1.0000 0.11960  0.72690  0.32305  Biso   1.000  C
  H111     1.0000 0.08560  0.68080  0.30340  Biso   1.000  H
  H112     1.0000 0.08150  0.74800  0.33950  Biso   1.000  H
  C47      1.0000 0.11040  0.85340  0.25478  Biso   1.000  C
  H113     1.0000 0.08320  0.88780  0.27120  Biso   1.000  H
  H114     1.0000 0.06680  0.80710  0.23950  Biso   1.000  H
  C48      1.0000 0.17780  0.68160  0.36116  Biso   1.000  C
  H115     1.0000 0.21580  0.72950  0.37830  Biso   1.000  H
  H116     1.0000 0.14390  0.63750  0.38500  Biso   1.000  H
  C49      1.0000 0.34340  0.64460  0.28910  Biso   1.000  C
  H117     1.0000 0.30650  0.59150  0.27550  Biso   1.000  H
  H118     1.0000 0.38190  0.62150  0.31510  Biso   1.000  H
  C50      1.0000 0.39250  0.70930  0.25030  Biso   1.000  C
  H119     1.0000 0.43370  0.75910  0.26440  Biso   1.000  H
  H120     1.0000 0.42250  0.67580  0.23510  Biso   1.000  H
  Cu6      1.0000 0.23923  0.31435  0.22424  Biso   1.000  Cu
  N21      1.0000 0.13840  0.37040  0.20075  Biso   1.000  N
  H121     1.0000 0.16070  0.43470  0.18530  Biso   1.000  H
  N22      1.0000 0.23200  0.34650  0.29044  Biso   1.000  N
  H122     1.0000 0.20290  0.28880  0.31000  Biso   1.000  H
  N23      1.0000 0.33490  0.25070  0.24953  Biso   1.000  N
  H123     1.0000 0.30910  0.18850  0.26640  Biso   1.000  H
  N24      1.0000 0.24520  0.27710  0.15934  Biso   1.000  N
  H124     1.0000 0.27780  0.33240  0.13960  Biso   1.000  H
  C51      1.0000 0.36710  0.31060  0.32934  Biso   1.000  C
  H125     1.0000 0.41400  0.33050  0.35340  Biso   1.000  H
  H126     1.0000 0.33300  0.25120  0.34370  Biso   1.000  H
  C52      1.0000 0.31360  0.38170  0.31907  Biso   1.000  C
  H127     1.0000 0.30260  0.39560  0.34980  Biso   1.000  H
  H128     1.0000 0.34450  0.43920  0.30100  Biso   1.000  H
  C53      1.0000 0.10310  0.37580  0.24603  Biso   1.000  C
  H129     1.0000 0.07100  0.31450  0.25940  Biso   1.000  H
  H130     1.0000 0.06550  0.41770  0.23870  Biso   1.000  H
  C54      1.0000 0.10960  0.31440  0.12025  Biso   1.000  C
  H131     1.0000 0.14290  0.37490  0.10670  Biso   1.000  H
  H132     1.0000 0.06330  0.29490  0.09580  Biso   1.000  H
  C55      1.0000 0.29610  0.20660  0.16870  Biso   1.000  C
  H133     1.0000 0.31680  0.20200  0.13860  Biso   1.000  H
  H134     1.0000 0.26150  0.14590  0.18100  Biso   1.000  H
  C56      1.0000 0.36890  0.23630  0.20575  Biso   1.000  C
  H135     1.0000 0.40060  0.18860  0.21480  Biso   1.000  H
  H136     1.0000 0.40660  0.29380  0.19210  Biso   1.000  H
  C57      1.0000 0.16490  0.24470  0.12958  Biso   1.000  C
  H137     1.0000 0.13390  0.18570  0.14630  Biso   1.000  H
  H138     1.0000 0.17720  0.23390  0.09840  Biso   1.000  H
  C58      1.0000 0.17550  0.41130  0.28251  Biso   1.000  C
  H139     1.0000 0.20590  0.47400  0.26990  Biso   1.000  H
  H140     1.0000 0.15450  0.41290  0.31310  Biso   1.000  H
  C59      1.0000 0.07290  0.32520  0.16523  Biso   1.000  C
  H141     1.0000 0.03130  0.36220  0.15520  Biso   1.000  H
  H142     1.0000 0.04410  0.26410  0.18090  Biso   1.000  H
  C60      1.0000 0.40220  0.29590  0.28481  Biso   1.000  C
  H143     1.0000 0.43240  0.35590  0.26860  Biso   1.000  H
  H144     1.0000 0.44240  0.25740  0.29530  Biso   1.000  H
  Cu7      1.0000 0.23808  0.54507  0.97429  Biso   1.000  Cu
  N25      1.0000 0.12630  0.55500  0.93697  Biso   1.000  N
  H145     1.0000 0.13190  0.55500  0.90240  Biso   1.000  H
  N26      1.0000 0.21340  0.40500  0.97697  Biso   1.000  N
  H146     1.0000 0.22650  0.39510  0.94540  Biso   1.000  H
  N27      1.0000 0.26170  0.68510  0.97097  Biso   1.000  N
  H147     1.0000 0.24910  0.69590  0.00240  Biso   1.000  H
  N28      1.0000 0.34900  0.53500  0.01247  Biso   1.000  N
  H148     1.0000 0.34150  0.53160  0.04700  Biso   1.000  H
  C61      1.0000 0.41150  0.70590  0.00484  Biso   1.000  C
  H149     1.0000 0.39100  0.70330  0.03610  Biso   1.000  H
  H150     1.0000 0.46580  0.75120  0.00380  Biso   1.000  H
  C62      1.0000 0.27750  0.37320  0.01410  Biso   1.000  C
  H151     1.0000 0.26200  0.36970  0.04680  Biso   1.000  H
  H152     1.0000 0.28160  0.31180  0.01000  Biso   1.000  H
  C63      1.0000 0.36110  0.44340  0.00689  Biso   1.000  C
  H153     1.0000 0.37760  0.44570  0.97450  Biso   1.000  H
  H154     1.0000 0.40500  0.42640  0.03110  Biso   1.000  H
  C64      1.0000 0.05260  0.47830  0.95082  Biso   1.000  C
  H155     1.0000 0.04420  0.47750  0.98460  Biso   1.000  H
  H156     1.0000 0.00240  0.48980  0.93050  Biso   1.000  H
  C65      1.0000 0.11510  0.64810  0.94073  Biso   1.000  C
  H157     1.0000 0.07190  0.66460  0.91580  Biso   1.000  H
  H158     1.0000 0.09780  0.64780  0.97260  Biso   1.000  H
  C66      1.0000 0.12620  0.34790  0.98343  Biso   1.000  C
  H159     1.0000 0.12320  0.28350  0.98080  Biso   1.000  H
  H160     1.0000 0.11200  0.34940  0.01580  Biso   1.000  H
  C67      1.0000 0.34980  0.73940  0.96416  Biso   1.000  C
  H161     1.0000 0.36460  0.73270  0.93280  Biso   1.000  H
  H162     1.0000 0.35380  0.80510  0.96410  Biso   1.000  H
  C68      1.0000 0.06330  0.38430  0.94514  Biso   1.000  C
  H163     1.0000 0.00880  0.33970  0.94660  Biso   1.000  H
  H164     1.0000 0.08150  0.38860  0.91300  Biso   1.000  H
  C69      1.0000 0.42460  0.61140  0.00178  Biso   1.000  C
  H165     1.0000 0.47200  0.60010  0.02490  Biso   1.000  H
  H166     1.0000 0.43880  0.61140  0.96920  Biso   1.000  H
  C70      1.0000 0.19810  0.71660  0.93364  Biso   1.000  C
  H167     1.0000 0.19440  0.77840  0.93740  Biso   1.000  H
  H168     1.0000 0.21390  0.71930  0.90110  Biso   1.000  H
  Cu8      1.0000 0.24977  0.20734  0.77851  Biso   1.000  Cu
  N29      1.0000 0.17310  0.28220  0.73883  Biso   1.000  N
  H169     1.0000 0.13320  0.24080  0.71820  Biso   1.000  H
  N30      1.0000 0.32060  0.12340  0.81797  Biso   1.000  N
  H170     1.0000 0.36650  0.16370  0.83610  Biso   1.000  H
  N31      1.0000 0.18340  0.20210  0.83554  Biso   1.000  N
  H171     1.0000 0.21490  0.25440  0.85250  Biso   1.000  H
  N32      1.0000 0.31080  0.20450  0.72135  Biso   1.000  N
  H172     1.0000 0.27400  0.15780  0.70240  Biso   1.000  H
  C71      1.0000 0.16960  0.11930  0.87385  Biso   1.000  C
  H173     1.0000 0.14920  0.13510  0.90140  Biso   1.000  H
  H174     1.0000 0.12550  0.07010  0.86110  Biso   1.000  H
  C72      1.0000 0.25780  0.33730  0.66846  Biso   1.000  C
  H175     1.0000 0.21610  0.29330  0.65060  Biso   1.000  H
  H176     1.0000 0.27680  0.39310  0.64520  Biso   1.000  H
  C73      1.0000 0.33230  0.29560  0.68670  Biso   1.000  C
  H177     1.0000 0.35580  0.28500  0.65880  Biso   1.000  H
  H178     1.0000 0.37560  0.34010  0.70330  Biso   1.000  H
  C74      1.0000 0.28170  0.04680  0.85419  Biso   1.000  C
  H179     1.0000 0.23660  0.00350  0.83790  Biso   1.000  H
  H180     1.0000 0.32360  0.01340  0.87030  Biso   1.000  H
  C75      1.0000 0.10390  0.22510  0.81460  Biso   1.000  C
  H181     1.0000 0.06510  0.17130  0.80260  Biso   1.000  H
  H182     1.0000 0.07800  0.24310  0.83930  Biso   1.000  H
  C76      1.0000 0.12290  0.30500  0.77291  Biso   1.000  C
  H183     1.0000 0.15420  0.36140  0.78580  Biso   1.000  H
  H184     1.0000 0.07030  0.31630  0.75550  Biso   1.000  H
  C77      1.0000 0.36110  0.09180  0.78180  Biso   1.000  C
  H185     1.0000 0.32200  0.03950  0.76860  Biso   1.000  H
  H186     1.0000 0.41100  0.07170  0.79760  Biso   1.000  H
  C78      1.0000 0.38490  0.17020  0.74190  Biso   1.000  C
  H187     1.0000 0.40730  0.14940  0.71670  Biso   1.000  H
  H188     1.0000 0.42850  0.22000  0.75460  Biso   1.000  H
  C79      1.0000 0.24640  0.08240  0.89180  Biso   1.000  C
  H189     1.0000 0.29030  0.13180  0.90460  Biso   1.000  H
  H190     1.0000 0.23240  0.03210  0.91880  Biso   1.000  H
  C80      1.0000 0.21430  0.36310  0.70596  Biso   1.000  C
  H191     1.0000 0.17230  0.39600  0.68930  Biso   1.000  H
  H192     1.0000 0.25560  0.40520  0.72500  Biso   1.000  H
  Cu9      1.0000 0.22581  0.75898  0.71742  Biso   1.000  Cu
  N33      1.0000 0.22540  0.78630  0.78567  Biso   1.000  N
  H193     1.0000 0.19900  0.72720  0.80520  Biso   1.000  H
  N34      1.0000 0.22840  0.73000  0.64997  Biso   1.000  N
  H194     1.0000 0.26650  0.78440  0.63280  Biso   1.000  H
  N35      1.0000 0.12780  0.82000  0.69862  Biso   1.000  N
  H195     1.0000 0.15140  0.88590  0.68620  Biso   1.000  H
  N36      1.0000 0.31690  0.68830  0.73886  Biso   1.000  N
  H196     1.0000 0.28970  0.62720  0.75630  Biso   1.000  H
  C81      1.0000 0.14890  0.71150  0.61765  Biso   1.000  C
  H197     1.0000 0.16200  0.70900  0.58510  Biso   1.000  H
  H198     1.0000 0.11420  0.65070  0.62980  Biso   1.000  H
  C82      1.0000 0.31010  0.82020  0.81119  Biso   1.000  C
  H199     1.0000 0.33970  0.87720  0.79210  Biso   1.000  H
  H200     1.0000 0.30370  0.83450  0.84280  Biso   1.000  H
  C83      1.0000 0.16840  0.84850  0.78192  Biso   1.000  C
  H201     1.0000 0.14920  0.84550  0.81360  Biso   1.000  H
  H202     1.0000 0.19760  0.91250  0.77090  Biso   1.000  H
  C84      1.0000 0.34600  0.67090  0.69403  Biso   1.000  C
  H203     1.0000 0.38830  0.72500  0.68110  Biso   1.000  H
  H204     1.0000 0.37120  0.61770  0.70180  Biso   1.000  H
  C85      1.0000 0.27070  0.65180  0.65681  Biso   1.000  C
  H205     1.0000 0.23160  0.59350  0.66810  Biso   1.000  H
  H206     1.0000 0.28870  0.64680  0.62600  Biso   1.000  H
  C86      1.0000 0.09410  0.81670  0.74572  Biso   1.000  C
  H207     1.0000 0.05580  0.85750  0.74150  Biso   1.000  H
  H208     1.0000 0.06340  0.75370  0.75740  Biso   1.000  H
  C87      1.0000 0.09840  0.78400  0.61394  Biso   1.000  C
  H209     1.0000 0.13480  0.84540  0.60490  Biso   1.000  H
  H210     1.0000 0.05270  0.77370  0.58800  Biso   1.000  H
  C88      1.0000 0.36160  0.74850  0.81850  Biso   1.000  C
  H211     1.0000 0.41180  0.76850  0.84040  Biso   1.000  H
  H212     1.0000 0.32870  0.69000  0.83460  Biso   1.000  H
  C89      1.0000 0.06130  0.78270  0.66112  Biso   1.000  C
  H213     1.0000 0.03280  0.71920  0.67350  Biso   1.000  H
  H214     1.0000 0.01970  0.82000  0.65440  Biso   1.000  H
  C90      1.0000 0.38900  0.73080  0.77250  Biso   1.000  C
  H215     1.0000 0.42710  0.68950  0.78140  Biso   1.000  H
  H216     1.0000 0.42000  0.78940  0.75550  Biso   1.000  H
  Cu10     1.0000 0.75463  0.93818  0.52473  Biso   1.000  Cu
  N37      1.0000 0.71030  0.80230  0.51782  Biso   1.000  N
  H217     1.0000 0.72060  0.79570  0.48500  Biso   1.000  H
  N38      1.0000 0.85730  0.89950  0.56112  Biso   1.000  N
  H218     1.0000 0.85050  0.89270  0.59600  Biso   1.000  H
  N39      1.0000 0.65280  0.97660  0.48622  Biso   1.000  N
  H219     1.0000 0.66210  0.98490  0.45160  Biso   1.000  H
  N40      1.0000 0.79970  0.07400  0.53177  Biso   1.000  N
  H220     1.0000 0.78850  0.08020  0.56440  Biso   1.000  H
  C91      1.0000 0.74670  0.12560  0.49638  Biso   1.000  C
  H221     1.0000 0.75240  0.18670  0.50520  Biso   1.000  H
  H222     1.0000 0.76450  0.13400  0.46380  Biso   1.000  H
  C92      1.0000 0.56620  0.81530  0.48322  Biso   1.000  C
  H223     1.0000 0.58640  0.81910  0.45170  Biso   1.000  H
  H224     1.0000 0.50790  0.77920  0.48180  Biso   1.000  H
  C93      1.0000 0.61840  0.76390  0.52219  Biso   1.000  C
  H225     1.0000 0.60330  0.69810  0.51900  Biso   1.000  H
  H226     1.0000 0.60570  0.76920  0.55430  Biso   1.000  H
  C94      1.0000 0.85290  0.80470  0.55097  Biso   1.000  C
  H227     1.0000 0.87070  0.80830  0.51880  Biso   1.000  H
  H228     1.0000 0.88960  0.77480  0.57520  Biso   1.000  H
  C95      1.0000 0.89180  0.11480  0.52819  Biso   1.000  C
  H229     1.0000 0.90460  0.11590  0.49520  Biso   1.000  H
  H230     1.0000 0.90600  0.17880  0.53460  Biso   1.000  H
  C96      1.0000 0.94020  0.96350  0.55370  Biso   1.000  C
  H231     1.0000 0.98340  0.93830  0.57490  Biso   1.000  H
  H232     1.0000 0.95180  0.96780  0.52010  Biso   1.000  H
  C97      1.0000 0.65610  0.07030  0.49713  Biso   1.000  C
  H233     1.0000 0.61990  0.10070  0.47270  Biso   1.000  H
  H234     1.0000 0.63680  0.06530  0.52910  Biso   1.000  H
  C98      1.0000 0.76280  0.75050  0.55315  Biso   1.000  C
  H235     1.0000 0.74610  0.74360  0.58590  Biso   1.000  H
  H236     1.0000 0.75590  0.68870  0.54490  Biso   1.000  H
  C99      1.0000 0.56870  0.91300  0.49144  Biso   1.000  C
  H237     1.0000 0.55310  0.91040  0.52400  Biso   1.000  H
  H238     1.0000 0.52740  0.93750  0.46800  Biso   1.000  H
  C100     1.0000 0.94520  0.05980  0.56409  Biso   1.000  C
  H239     1.0000 0.92800  0.05420  0.59660  Biso   1.000  H
  H240     1.0000 0.00380  0.09500  0.56440  Biso   1.000  H
  Cu11     1.0000 0.75022  0.22171  0.74832  Biso   1.000  Cu
  N41      1.0000 0.83280  0.19270  0.70963  Biso   1.000  N
  H241     1.0000 0.80020  0.14680  0.68890  Biso   1.000  H
  N42      1.0000 0.79190  0.13480  0.80442  Biso   1.000  N
  H242     1.0000 0.83400  0.17410  0.82520  Biso   1.000  H
  N43      1.0000 0.70730  0.30560  0.69101  Biso   1.000  N
  H243     1.0000 0.66770  0.26450  0.67000  Biso   1.000  H
  N44      1.0000 0.66740  0.25130  0.78669  Biso   1.000  N
  H244     1.0000 0.69920  0.30130  0.80510  Biso   1.000  H
  C101     1.0000 0.83780  0.08100  0.78346  Biso   1.000  C
  H245     1.0000 0.87440  0.05360  0.80900  Biso   1.000  H
  H246     1.0000 0.79790  0.03100  0.76880  Biso   1.000  H
  C102     1.0000 0.68300  0.13070  0.85829  Biso   1.000  C
  H247     1.0000 0.72480  0.17960  0.87270  Biso   1.000  H
  H248     1.0000 0.65180  0.09040  0.88440  Biso   1.000  H
  C103     1.0000 0.62300  0.17430  0.82223  Biso   1.000  C
  H249     1.0000 0.58840  0.19830  0.83970  Biso   1.000  H
  H250     1.0000 0.58570  0.12690  0.80460  Biso   1.000  H
  C104     1.0000 0.72880  0.07360  0.83658  Biso   1.000  C
  H251     1.0000 0.68790  0.03050  0.81790  Biso   1.000  H
  H252     1.0000 0.75700  0.03730  0.86280  Biso   1.000  H
  C105     1.0000 0.77010  0.36860  0.65947  Biso   1.000  C
  H253     1.0000 0.74090  0.40260  0.63260  Biso   1.000  H
  H254     1.0000 0.80770  0.41390  0.67840  Biso   1.000  H
  C106     1.0000 0.88040  0.27310  0.67695  Biso   1.000  C
  H255     1.0000 0.91440  0.31920  0.69660  Biso   1.000  H
  H256     1.0000 0.91850  0.25200  0.66050  Biso   1.000  H
  C107     1.0000 0.88960  0.14660  0.74522  Biso   1.000  C
  H257     1.0000 0.91680  0.11220  0.72880  Biso   1.000  H
  H258     1.0000 0.93320  0.19290  0.76050  Biso   1.000  H
  C108     1.0000 0.82220  0.31840  0.63884  Biso   1.000  C
  H259     1.0000 0.78420  0.27050  0.62170  Biso   1.000  H
  H260     1.0000 0.85610  0.36250  0.61500  Biso   1.000  H
  C109     1.0000 0.65660  0.35540  0.71090  Biso   1.000  C
  H261     1.0000 0.69350  0.40850  0.72450  Biso   1.000  H
  H262     1.0000 0.61810  0.37850  0.68490  Biso   1.000  H
  C110     1.0000 0.60750  0.29070  0.74970  Biso   1.000  C
  H263     1.0000 0.56630  0.24090  0.73560  Biso   1.000  H
  H264     1.0000 0.57750  0.32420  0.76490  Biso   1.000  H
  Cu12     1.0000 0.76077  0.68565  0.77576  Biso   1.000  Cu
  N45      1.0000 0.86160  0.62960  0.79925  Biso   1.000  N
  H265     1.0000 0.83930  0.56530  0.81470  Biso   1.000  H
  N46      1.0000 0.76800  0.65350  0.70956  Biso   1.000  N
  H266     1.0000 0.79710  0.71120  0.69000  Biso   1.000  H
  N47      1.0000 0.66510  0.74930  0.75047  Biso   1.000  N
  H267     1.0000 0.69090  0.81150  0.73360  Biso   1.000  H
  N48      1.0000 0.75480  0.72290  0.84066  Biso   1.000  N
  H268     1.0000 0.72220  0.66760  0.86040  Biso   1.000  H
  C111     1.0000 0.63290  0.68940  0.67066  Biso   1.000  C
  H269     1.0000 0.58600  0.66950  0.64660  Biso   1.000  H
  H270     1.0000 0.66700  0.74880  0.65630  Biso   1.000  H
  C112     1.0000 0.68640  0.61830  0.68093  Biso   1.000  C
  H271     1.0000 0.69740  0.60440  0.65020  Biso   1.000  H
  H272     1.0000 0.65550  0.56080  0.69900  Biso   1.000  H
  C113     1.0000 0.89690  0.62420  0.75397  Biso   1.000  C
  H273     1.0000 0.92900  0.68550  0.74060  Biso   1.000  H
  H274     1.0000 0.93450  0.58230  0.76130  Biso   1.000  H
  C114     1.0000 0.89040  0.68560  0.87975  Biso   1.000  C
  H275     1.0000 0.85710  0.62510  0.89330  Biso   1.000  H
  H276     1.0000 0.93670  0.70510  0.90420  Biso   1.000  H
  C115     1.0000 0.70390  0.79340  0.83130  Biso   1.000  C
  H277     1.0000 0.68320  0.79800  0.86140  Biso   1.000  H
  H278     1.0000 0.73850  0.85410  0.81900  Biso   1.000  H
  C116     1.0000 0.63110  0.76370  0.79425  Biso   1.000  C
  H279     1.0000 0.59940  0.81140  0.78520  Biso   1.000  H
  H280     1.0000 0.59340  0.70620  0.80790  Biso   1.000  H
  C117     1.0000 0.83510  0.75530  0.87042  Biso   1.000  C
  H281     1.0000 0.86610  0.81430  0.85370  Biso   1.000  H
  H282     1.0000 0.82280  0.76610  0.90160  Biso   1.000  H
  C118     1.0000 0.82450  0.58870  0.71749  Biso   1.000  C
  H283     1.0000 0.79410  0.52600  0.73010  Biso   1.000  H
  H284     1.0000 0.84550  0.58710  0.68690  Biso   1.000  H
  C119     1.0000 0.92710  0.67480  0.83477  Biso   1.000  C
  H285     1.0000 0.96870  0.63780  0.84480  Biso   1.000  H
  H286     1.0000 0.95590  0.73590  0.81910  Biso   1.000  H
  C120     1.0000 0.59780  0.70410  0.71519  Biso   1.000  C
  H287     1.0000 0.56760  0.64410  0.73140  Biso   1.000  H
  H288     1.0000 0.55760  0.74260  0.70470  Biso   1.000  H
