data_image0
_cell_length_a       28.9324
_cell_length_b       7.7007
_cell_length_c       16.0837
_cell_angle_alpha    90
_cell_angle_beta     107.629
_cell_angle_gamma    90

_symmetry_space_group_name_H-M    "P 1"
_symmetry_int_tables_number       1

loop_
  _symmetry_equiv_pos_as_xyz
  'x, y, z'

loop_
  _atom_site_label
  _atom_site_occupancy
  _atom_site_fract_x
  _atom_site_fract_y
  _atom_site_fract_z
  _atom_site_thermal_displace_type
  _atom_site_B_iso_or_equiv
  _atom_site_type_symbol
  C1       1.0000 0.67877  0.52230  0.09790  Biso   1.000  C
  C2       1.0000 0.68988  0.69840  0.06850  Biso   1.000  C
  C3       1.0000 0.68507  0.72670  0.98110  Biso   1.000  C
  H1       1.0000 0.67390  0.63810  0.94080  Biso   1.000  H
  C4       1.0000 0.69683  0.88670  0.95400  Biso   1.000  C
  C5       1.0000 0.71350  0.01950  0.01380  Biso   1.000  C
  H2       1.0000 0.72150  0.12670  0.99530  Biso   1.000  H
  C6       1.0000 0.71820  0.99190  0.10140  Biso   1.000  C
  C7       1.0000 0.70648  0.83200  0.12850  Biso   1.000  C
  H3       1.0000 0.70970  0.81350  0.18720  Biso   1.000  H
  C8       1.0000 0.69259  0.91460  0.85880  Biso   1.000  C
  C9       1.0000 0.59660  0.09620  0.03500  Biso   1.000  C
  H4       1.0000 0.60460  0.18690  0.00370  Biso   1.000  H
  C10      1.0000 0.56580  0.96740  0.99000  Biso   1.000  C
  H5       1.0000 0.55310  0.97300  0.92960  Biso   1.000  H
  C11      1.0000 0.55380  0.83160  0.03460  Biso   1.000  C
  C12      1.0000 0.57300  0.82870  0.12370  Biso   1.000  C
  H6       1.0000 0.56590  0.73790  0.15600  Biso   1.000  H
  C13      1.0000 0.60300  0.96350  0.16480  Biso   1.000  C
  H7       1.0000 0.61510  0.96260  0.22540  Biso   1.000  H
  C14      1.0000 0.52290  0.69080  0.98720  Biso   1.000  C
  H8       1.0000 0.50890  0.69770  0.92710  Biso   1.000  H
  N1       1.0000 0.73247  0.12930  0.16420  Biso   1.000  N
  N2       1.0000 0.61526  0.09480  0.12140  Biso   1.000  N
  N3       1.0000 0.51540  0.56160  0.02800  Biso   1.000  N
  O1       1.0000 0.66488  0.40400  0.04380  Biso   1.000  O
  O2       1.0000 0.68498  0.49900  0.17902  Biso   1.000  O
  O3       1.0000 0.70427  0.05570  0.83453  Biso   1.000  O
  O4       1.0000 0.67639  0.78500  0.80947  Biso   1.000  O
  Zn1      1.0000 0.67245  0.24759  0.18778  Biso   1.000  Zn
  H9       1.0000 0.74500  0.20600  0.15400  Biso   1.000  H
  H10      1.0000 0.75290  0.08200  0.21400  Biso   1.000  H
  C15      1.0000 0.32123  0.52230  0.40210  Biso   1.000  C
  C16      1.0000 0.31012  0.69840  0.43150  Biso   1.000  C
  C17      1.0000 0.31493  0.72670  0.51890  Biso   1.000  C
  H11      1.0000 0.32610  0.63810  0.55920  Biso   1.000  H
  C18      1.0000 0.30317  0.88670  0.54600  Biso   1.000  C
  C19      1.0000 0.28650  0.01950  0.48620  Biso   1.000  C
  H12      1.0000 0.27850  0.12670  0.50470  Biso   1.000  H
  C20      1.0000 0.28180  0.99190  0.39860  Biso   1.000  C
  C21      1.0000 0.29352  0.83200  0.37150  Biso   1.000  C
  H13      1.0000 0.29030  0.81350  0.31280  Biso   1.000  H
  C22      1.0000 0.30741  0.91460  0.64120  Biso   1.000  C
  C23      1.0000 0.40340  0.09620  0.46500  Biso   1.000  C
  H14      1.0000 0.39540  0.18690  0.49630  Biso   1.000  H
  C24      1.0000 0.43420  0.96740  0.51000  Biso   1.000  C
  H15      1.0000 0.44690  0.97300  0.57040  Biso   1.000  H
  C25      1.0000 0.44620  0.83160  0.46540  Biso   1.000  C
  C26      1.0000 0.42700  0.82870  0.37630  Biso   1.000  C
  H16      1.0000 0.43410  0.73790  0.34400  Biso   1.000  H
  C27      1.0000 0.39700  0.96350  0.33520  Biso   1.000  C
  H17      1.0000 0.38490  0.96260  0.27460  Biso   1.000  H
  C28      1.0000 0.47710  0.69080  0.51280  Biso   1.000  C
  H18      1.0000 0.49110  0.69770  0.57290  Biso   1.000  H
  N4       1.0000 0.26753  0.12930  0.33580  Biso   1.000  N
  N5       1.0000 0.38474  0.09480  0.37860  Biso   1.000  N
  N6       1.0000 0.48460  0.56160  0.47200  Biso   1.000  N
  O5       1.0000 0.33512  0.40400  0.45620  Biso   1.000  O
  O6       1.0000 0.31502  0.49900  0.32098  Biso   1.000  O
  O7       1.0000 0.29573  0.05570  0.66547  Biso   1.000  O
  O8       1.0000 0.32361  0.78500  0.69053  Biso   1.000  O
  Zn2      1.0000 0.32755  0.24759  0.31222  Biso   1.000  Zn
  H19      1.0000 0.25500  0.20600  0.34600  Biso   1.000  H
  H20      1.0000 0.24710  0.08200  0.28600  Biso   1.000  H
  C29      1.0000 0.32123  0.47770  0.90210  Biso   1.000  C
  C30      1.0000 0.31012  0.30160  0.93150  Biso   1.000  C
  C31      1.0000 0.31493  0.27330  0.01890  Biso   1.000  C
  H21      1.0000 0.32610  0.36190  0.05920  Biso   1.000  H
  C32      1.0000 0.30317  0.11330  0.04600  Biso   1.000  C
  C33      1.0000 0.28650  0.98050  0.98620  Biso   1.000  C
  H22      1.0000 0.27850  0.87330  0.00470  Biso   1.000  H
  C34      1.0000 0.28180  0.00810  0.89860  Biso   1.000  C
  C35      1.0000 0.29352  0.16800  0.87150  Biso   1.000  C
  H23      1.0000 0.29030  0.18650  0.81280  Biso   1.000  H
  C36      1.0000 0.30741  0.08540  0.14120  Biso   1.000  C
  C37      1.0000 0.40340  0.90380  0.96500  Biso   1.000  C
  H24      1.0000 0.39540  0.81310  0.99630  Biso   1.000  H
  C38      1.0000 0.43420  0.03260  0.01000  Biso   1.000  C
  H25      1.0000 0.44690  0.02700  0.07040  Biso   1.000  H
  C39      1.0000 0.44620  0.16840  0.96540  Biso   1.000  C
  C40      1.0000 0.42700  0.17130  0.87630  Biso   1.000  C
  H26      1.0000 0.43410  0.26210  0.84400  Biso   1.000  H
  C41      1.0000 0.39700  0.03650  0.83520  Biso   1.000  C
  H27      1.0000 0.38490  0.03740  0.77460  Biso   1.000  H
  C42      1.0000 0.47710  0.30920  0.01280  Biso   1.000  C
  H28      1.0000 0.49110  0.30230  0.07290  Biso   1.000  H
  N7       1.0000 0.26753  0.87070  0.83580  Biso   1.000  N
  N8       1.0000 0.38474  0.90520  0.87860  Biso   1.000  N
  N9       1.0000 0.48460  0.43840  0.97200  Biso   1.000  N
  O9       1.0000 0.33512  0.59600  0.95620  Biso   1.000  O
  O10      1.0000 0.31502  0.50100  0.82098  Biso   1.000  O
  O11      1.0000 0.29573  0.94430  0.16547  Biso   1.000  O
  O12      1.0000 0.32361  0.21500  0.19053  Biso   1.000  O
  Zn3      1.0000 0.32755  0.75241  0.81222  Biso   1.000  Zn
  H29      1.0000 0.25500  0.79400  0.84600  Biso   1.000  H
  H30      1.0000 0.24710  0.91800  0.78600  Biso   1.000  H
  C43      1.0000 0.67877  0.47770  0.59790  Biso   1.000  C
  C44      1.0000 0.68988  0.30160  0.56850  Biso   1.000  C
  C45      1.0000 0.68507  0.27330  0.48110  Biso   1.000  C
  H31      1.0000 0.67390  0.36190  0.44080  Biso   1.000  H
  C46      1.0000 0.69683  0.11330  0.45400  Biso   1.000  C
  C47      1.0000 0.71350  0.98050  0.51380  Biso   1.000  C
  H32      1.0000 0.72150  0.87330  0.49530  Biso   1.000  H
  C48      1.0000 0.71820  0.00810  0.60140  Biso   1.000  C
  C49      1.0000 0.70648  0.16800  0.62850  Biso   1.000  C
  H33      1.0000 0.70970  0.18650  0.68720  Biso   1.000  H
  C50      1.0000 0.69259  0.08540  0.35880  Biso   1.000  C
  C51      1.0000 0.59660  0.90380  0.53500  Biso   1.000  C
  H34      1.0000 0.60460  0.81310  0.50370  Biso   1.000  H
  C52      1.0000 0.56580  0.03260  0.49000  Biso   1.000  C
  H35      1.0000 0.55310  0.02700  0.42960  Biso   1.000  H
  C53      1.0000 0.55380  0.16840  0.53460  Biso   1.000  C
  C54      1.0000 0.57300  0.17130  0.62370  Biso   1.000  C
  H36      1.0000 0.56590  0.26210  0.65600  Biso   1.000  H
  C55      1.0000 0.60300  0.03650  0.66480  Biso   1.000  C
  H37      1.0000 0.61510  0.03740  0.72540  Biso   1.000  H
  C56      1.0000 0.52290  0.30920  0.48720  Biso   1.000  C
  H38      1.0000 0.50890  0.30230  0.42710  Biso   1.000  H
  N10      1.0000 0.73247  0.87070  0.66420  Biso   1.000  N
  N11      1.0000 0.61526  0.90520  0.62140  Biso   1.000  N
  N12      1.0000 0.51540  0.43840  0.52800  Biso   1.000  N
  O13      1.0000 0.66488  0.59600  0.54380  Biso   1.000  O
  O14      1.0000 0.68498  0.50100  0.67902  Biso   1.000  O
  O15      1.0000 0.70427  0.94430  0.33453  Biso   1.000  O
  O16      1.0000 0.67639  0.21500  0.30947  Biso   1.000  O
  Zn4      1.0000 0.67245  0.75241  0.68778  Biso   1.000  Zn
  H39      1.0000 0.74500  0.79400  0.65400  Biso   1.000  H
  H40      1.0000 0.75290  0.91800  0.71400  Biso   1.000  H
  C57      1.0000 0.17877  0.02230  0.09790  Biso   1.000  C
  C58      1.0000 0.18988  0.19840  0.06850  Biso   1.000  C
  C59      1.0000 0.18507  0.22670  0.98110  Biso   1.000  C
  H41      1.0000 0.17390  0.13810  0.94080  Biso   1.000  H
  C60      1.0000 0.19683  0.38670  0.95400  Biso   1.000  C
  C61      1.0000 0.21350  0.51950  0.01380  Biso   1.000  C
  H42      1.0000 0.22150  0.62670  0.99530  Biso   1.000  H
  C62      1.0000 0.21820  0.49190  0.10140  Biso   1.000  C
  C63      1.0000 0.20648  0.33200  0.12850  Biso   1.000  C
  H43      1.0000 0.20970  0.31350  0.18720  Biso   1.000  H
  C64      1.0000 0.19259  0.41460  0.85880  Biso   1.000  C
  C65      1.0000 0.09660  0.59620  0.03500  Biso   1.000  C
  H44      1.0000 0.10460  0.68690  0.00370  Biso   1.000  H
  C66      1.0000 0.06580  0.46740  0.99000  Biso   1.000  C
  H45      1.0000 0.05310  0.47300  0.92960  Biso   1.000  H
  C67      1.0000 0.05380  0.33160  0.03460  Biso   1.000  C
  C68      1.0000 0.07300  0.32870  0.12370  Biso   1.000  C
  H46      1.0000 0.06590  0.23790  0.15600  Biso   1.000  H
  C69      1.0000 0.10300  0.46350  0.16480  Biso   1.000  C
  H47      1.0000 0.11510  0.46260  0.22540  Biso   1.000  H
  C70      1.0000 0.02290  0.19080  0.98720  Biso   1.000  C
  H48      1.0000 0.00890  0.19770  0.92710  Biso   1.000  H
  N13      1.0000 0.23247  0.62930  0.16420  Biso   1.000  N
  N14      1.0000 0.11526  0.59480  0.12140  Biso   1.000  N
  N15      1.0000 0.01540  0.06160  0.02800  Biso   1.000  N
  O17      1.0000 0.16488  0.90400  0.04380  Biso   1.000  O
  O18      1.0000 0.18498  0.99900  0.17902  Biso   1.000  O
  O19      1.0000 0.20427  0.55570  0.83453  Biso   1.000  O
  O20      1.0000 0.17639  0.28500  0.80947  Biso   1.000  O
  Zn5      1.0000 0.17245  0.74759  0.18778  Biso   1.000  Zn
  H49      1.0000 0.24500  0.70600  0.15400  Biso   1.000  H
  H50      1.0000 0.25290  0.58200  0.21400  Biso   1.000  H
  C71      1.0000 0.82123  0.02230  0.40210  Biso   1.000  C
  C72      1.0000 0.81012  0.19840  0.43150  Biso   1.000  C
  C73      1.0000 0.81493  0.22670  0.51890  Biso   1.000  C
  H51      1.0000 0.82610  0.13810  0.55920  Biso   1.000  H
  C74      1.0000 0.80317  0.38670  0.54600  Biso   1.000  C
  C75      1.0000 0.78650  0.51950  0.48620  Biso   1.000  C
  H52      1.0000 0.77850  0.62670  0.50470  Biso   1.000  H
  C76      1.0000 0.78180  0.49190  0.39860  Biso   1.000  C
  C77      1.0000 0.79352  0.33200  0.37150  Biso   1.000  C
  H53      1.0000 0.79030  0.31350  0.31280  Biso   1.000  H
  C78      1.0000 0.80741  0.41460  0.64120  Biso   1.000  C
  C79      1.0000 0.90340  0.59620  0.46500  Biso   1.000  C
  H54      1.0000 0.89540  0.68690  0.49630  Biso   1.000  H
  C80      1.0000 0.93420  0.46740  0.51000  Biso   1.000  C
  H55      1.0000 0.94690  0.47300  0.57040  Biso   1.000  H
  C81      1.0000 0.94620  0.33160  0.46540  Biso   1.000  C
  C82      1.0000 0.92700  0.32870  0.37630  Biso   1.000  C
  H56      1.0000 0.93410  0.23790  0.34400  Biso   1.000  H
  C83      1.0000 0.89700  0.46350  0.33520  Biso   1.000  C
  H57      1.0000 0.88490  0.46260  0.27460  Biso   1.000  H
  C84      1.0000 0.97710  0.19080  0.51280  Biso   1.000  C
  H58      1.0000 0.99110  0.19770  0.57290  Biso   1.000  H
  N16      1.0000 0.76753  0.62930  0.33580  Biso   1.000  N
  N17      1.0000 0.88474  0.59480  0.37860  Biso   1.000  N
  N18      1.0000 0.98460  0.06160  0.47200  Biso   1.000  N
  O21      1.0000 0.83512  0.90400  0.45620  Biso   1.000  O
  O22      1.0000 0.81502  0.99900  0.32098  Biso   1.000  O
  O23      1.0000 0.79573  0.55570  0.66547  Biso   1.000  O
  O24      1.0000 0.82361  0.28500  0.69053  Biso   1.000  O
  Zn6      1.0000 0.82755  0.74759  0.31222  Biso   1.000  Zn
  H59      1.0000 0.75500  0.70600  0.34600  Biso   1.000  H
  H60      1.0000 0.74710  0.58200  0.28600  Biso   1.000  H
  C85      1.0000 0.82123  0.97770  0.90210  Biso   1.000  C
  C86      1.0000 0.81012  0.80160  0.93150  Biso   1.000  C
  C87      1.0000 0.81493  0.77330  0.01890  Biso   1.000  C
  H61      1.0000 0.82610  0.86190  0.05920  Biso   1.000  H
  C88      1.0000 0.80317  0.61330  0.04600  Biso   1.000  C
  C89      1.0000 0.78650  0.48050  0.98620  Biso   1.000  C
  H62      1.0000 0.77850  0.37330  0.00470  Biso   1.000  H
  C90      1.0000 0.78180  0.50810  0.89860  Biso   1.000  C
  C91      1.0000 0.79352  0.66800  0.87150  Biso   1.000  C
  H63      1.0000 0.79030  0.68650  0.81280  Biso   1.000  H
  C92      1.0000 0.80741  0.58540  0.14120  Biso   1.000  C
  C93      1.0000 0.90340  0.40380  0.96500  Biso   1.000  C
  H64      1.0000 0.89540  0.31310  0.99630  Biso   1.000  H
  C94      1.0000 0.93420  0.53260  0.01000  Biso   1.000  C
  H65      1.0000 0.94690  0.52700  0.07040  Biso   1.000  H
  C95      1.0000 0.94620  0.66840  0.96540  Biso   1.000  C
  C96      1.0000 0.92700  0.67130  0.87630  Biso   1.000  C
  H66      1.0000 0.93410  0.76210  0.84400  Biso   1.000  H
  C97      1.0000 0.89700  0.53650  0.83520  Biso   1.000  C
  H67      1.0000 0.88490  0.53740  0.77460  Biso   1.000  H
  C98      1.0000 0.97710  0.80920  0.01280  Biso   1.000  C
  H68      1.0000 0.99110  0.80230  0.07290  Biso   1.000  H
  N19      1.0000 0.76753  0.37070  0.83580  Biso   1.000  N
  N20      1.0000 0.88474  0.40520  0.87860  Biso   1.000  N
  N21      1.0000 0.98460  0.93840  0.97200  Biso   1.000  N
  O25      1.0000 0.83512  0.09600  0.95620  Biso   1.000  O
  O26      1.0000 0.81502  0.00100  0.82098  Biso   1.000  O
  O27      1.0000 0.79573  0.44430  0.16547  Biso   1.000  O
  O28      1.0000 0.82361  0.71500  0.19053  Biso   1.000  O
  Zn7      1.0000 0.82755  0.25241  0.81222  Biso   1.000  Zn
  H69      1.0000 0.75500  0.29400  0.84600  Biso   1.000  H
  H70      1.0000 0.74710  0.41800  0.78600  Biso   1.000  H
  C99      1.0000 0.17877  0.97770  0.59790  Biso   1.000  C
  C100     1.0000 0.18988  0.80160  0.56850  Biso   1.000  C
  C101     1.0000 0.18507  0.77330  0.48110  Biso   1.000  C
  H71      1.0000 0.17390  0.86190  0.44080  Biso   1.000  H
  C102     1.0000 0.19683  0.61330  0.45400  Biso   1.000  C
  C103     1.0000 0.21350  0.48050  0.51380  Biso   1.000  C
  H72      1.0000 0.22150  0.37330  0.49530  Biso   1.000  H
  C104     1.0000 0.21820  0.50810  0.60140  Biso   1.000  C
  C105     1.0000 0.20648  0.66800  0.62850  Biso   1.000  C
  H73      1.0000 0.20970  0.68650  0.68720  Biso   1.000  H
  C106     1.0000 0.19259  0.58540  0.35880  Biso   1.000  C
  C107     1.0000 0.09660  0.40380  0.53500  Biso   1.000  C
  H74      1.0000 0.10460  0.31310  0.50370  Biso   1.000  H
  C108     1.0000 0.06580  0.53260  0.49000  Biso   1.000  C
  H75      1.0000 0.05310  0.52700  0.42960  Biso   1.000  H
  C109     1.0000 0.05380  0.66840  0.53460  Biso   1.000  C
  C110     1.0000 0.07300  0.67130  0.62370  Biso   1.000  C
  H76      1.0000 0.06590  0.76210  0.65600  Biso   1.000  H
  C111     1.0000 0.10300  0.53650  0.66480  Biso   1.000  C
  H77      1.0000 0.11510  0.53740  0.72540  Biso   1.000  H
  C112     1.0000 0.02290  0.80920  0.48720  Biso   1.000  C
  H78      1.0000 0.00890  0.80230  0.42710  Biso   1.000  H
  N22      1.0000 0.23247  0.37070  0.66420  Biso   1.000  N
  N23      1.0000 0.11526  0.40520  0.62140  Biso   1.000  N
  N24      1.0000 0.01540  0.93840  0.52800  Biso   1.000  N
  O29      1.0000 0.16488  0.09600  0.54380  Biso   1.000  O
  O30      1.0000 0.18498  0.00100  0.67902  Biso   1.000  O
  O31      1.0000 0.20427  0.44430  0.33453  Biso   1.000  O
  O32      1.0000 0.17639  0.71500  0.30947  Biso   1.000  O
  Zn8      1.0000 0.17245  0.25241  0.68778  Biso   1.000  Zn
  H79      1.0000 0.24500  0.29400  0.65400  Biso   1.000  H
  H80      1.0000 0.25290  0.41800  0.71400  Biso   1.000  H
