data_image0
_cell_length_a       8.3592
_cell_length_b       8.5498
_cell_length_c       11.5516
_cell_angle_alpha    111.219
_cell_angle_beta     106.893
_cell_angle_gamma    92.67

_symmetry_space_group_name_H-M    "P 1"
_symmetry_int_tables_number       1

loop_
  _symmetry_equiv_pos_as_xyz
  'x, y, z'

loop_
  _atom_site_label
  _atom_site_occupancy
  _atom_site_fract_x
  _atom_site_fract_y
  _atom_site_fract_z
  _atom_site_thermal_displace_type
  _atom_site_B_iso_or_equiv
  _atom_site_type_symbol
  N1       1.0000 0.64990  0.19180  0.99940  Biso   1.000  N
  N2       1.0000 0.58440  0.34040  0.00340  Biso   1.000  N
  N3       1.0000 0.84250  0.36760  0.99910  Biso   1.000  N
  N4       1.0000 0.99840  0.42650  0.99860  Biso   1.000  N
  N5       1.0000 0.45320  0.16740  0.15770  Biso   1.000  N
  N6       1.0000 0.29070  0.17860  0.16210  Biso   1.000  N
  N7       1.0000 0.47200  0.35930  0.34500  Biso   1.000  N
  N8       1.0000 0.55330  0.47790  0.47260  Biso   1.000  N
  C1       1.0000 0.70230  0.44370  0.00310  Biso   1.000  C
  H1       1.0000 0.69340  0.55270  0.00520  Biso   1.000  H
  C2       1.0000 0.80310  0.21060  0.99720  Biso   1.000  C
  H2       1.0000 0.87450  0.13010  0.99460  Biso   1.000  H
  C3       1.0000 0.30550  0.29400  0.27570  Biso   1.000  C
  H3       1.0000 0.21570  0.32750  0.30560  Biso   1.000  H
  C4       1.0000 0.55990  0.27750  0.26730  Biso   1.000  C
  H4       1.0000 0.67730  0.29650  0.28850  Biso   1.000  H
  N9       1.0000 0.35010  0.80820  0.00060  Biso   1.000  N
  N10      1.0000 0.41560  0.65960  0.99660  Biso   1.000  N
  N11      1.0000 0.15750  0.63240  0.00090  Biso   1.000  N
  N12      1.0000 0.00160  0.57350  0.00140  Biso   1.000  N
  N13      1.0000 0.54680  0.83260  0.84230  Biso   1.000  N
  N14      1.0000 0.70930  0.82140  0.83790  Biso   1.000  N
  N15      1.0000 0.52800  0.64070  0.65500  Biso   1.000  N
  N16      1.0000 0.44670  0.52210  0.52740  Biso   1.000  N
  C5       1.0000 0.29770  0.55630  0.99690  Biso   1.000  C
  H5       1.0000 0.30660  0.44730  0.99480  Biso   1.000  H
  C6       1.0000 0.19690  0.78940  0.00280  Biso   1.000  C
  H6       1.0000 0.12550  0.86990  0.00540  Biso   1.000  H
  C7       1.0000 0.69450  0.70600  0.72430  Biso   1.000  C
  H7       1.0000 0.78430  0.67250  0.69440  Biso   1.000  H
  C8       1.0000 0.44010  0.72250  0.73270  Biso   1.000  C
  H8       1.0000 0.32270  0.70350  0.71150  Biso   1.000  H
  Cu1      1.0000 0.50000  0.00000  0.00000  Biso   1.000  Cu
