data_image0
_cell_length_a       11.3974
_cell_length_b       11.5337
_cell_length_c       12.5848
_cell_angle_alpha    117.067
_cell_angle_beta     101.07
_cell_angle_gamma    101.147

_symmetry_space_group_name_H-M    "P 1"
_symmetry_int_tables_number       1

loop_
  _symmetry_equiv_pos_as_xyz
  'x, y, z'

loop_
  _atom_site_label
  _atom_site_occupancy
  _atom_site_fract_x
  _atom_site_fract_y
  _atom_site_fract_z
  _atom_site_thermal_displace_type
  _atom_site_B_iso_or_equiv
  _atom_site_type_symbol
  Cu1      1.0000 0.48170  0.99088  0.19451  Biso   1.000  Cu
  P1       1.0000 0.33466  0.85125  0.89125  Biso   1.000  P
  O1       1.0000 0.42590  0.88260  0.01140  Biso   1.000  O
  O2       1.0000 0.24300  0.69680  0.82320  Biso   1.000  O
  O3       1.0000 0.39170  0.86270  0.79660  Biso   1.000  O
  N1       1.0000 0.34220  0.86900  0.20980  Biso   1.000  N
  N2       1.0000 0.49840  0.11150  0.37650  Biso   1.000  N
  C1       1.0000 0.22620  0.94860  0.91660  Biso   1.000  C
  H1       1.0000 0.26720  0.03660  0.92670  Biso   1.000  H
  H2       1.0000 0.15380  0.90070  0.84070  Biso   1.000  H
  C2       1.0000 0.17770  0.97630  0.02720  Biso   1.000  C
  C3       1.0000 0.07130  0.87770  0.01360  Biso   1.000  C
  C4       1.0000 0.00520  0.75030  0.89790  Biso   1.000  C
  H3       1.0000 0.03360  0.72900  0.82890  Biso   1.000  H
  C5       1.0000 0.90130  0.66000  0.88820  Biso   1.000  C
  H4       1.0000 0.86040  0.57740  0.81250  Biso   1.000  H
  C6       1.0000 0.85380  0.68900  0.99110  Biso   1.000  C
  H5       1.0000 0.78100  0.62710  0.98130  Biso   1.000  H
  C7       1.0000 0.91440  0.80640  0.10270  Biso   1.000  C
  H6       1.0000 0.88470  0.82350  0.17050  Biso   1.000  H
  C8       1.0000 0.02440  0.90510  0.11800  Biso   1.000  C
  C9       1.0000 0.08510  0.02790  0.23320  Biso   1.000  C
  H7       1.0000 0.05530  0.04440  0.30080  Biso   1.000  H
  C10      1.0000 0.18950  0.12570  0.24780  Biso   1.000  C
  C11      1.0000 0.24950  0.25100  0.36550  Biso   1.000  C
  H8       1.0000 0.22100  0.26470  0.43350  Biso   1.000  H
  C12      1.0000 0.34750  0.35050  0.37970  Biso   1.000  C
  H9       1.0000 0.38480  0.43270  0.45640  Biso   1.000  H
  C13      1.0000 0.39300  0.32870  0.27750  Biso   1.000  C
  H10      1.0000 0.45970  0.39800  0.28810  Biso   1.000  H
  C14      1.0000 0.34180  0.20900  0.16380  Biso   1.000  C
  H11      1.0000 0.37500  0.19750  0.09900  Biso   1.000  H
  C15      1.0000 0.23750  0.10100  0.14340  Biso   1.000  C
  C16      1.0000 0.29880  0.58710  0.78440  Biso   1.000  C
  H12      1.0000 0.37590  0.61250  0.85000  Biso   1.000  H
  H13      1.0000 0.31920  0.57030  0.70840  Biso   1.000  H
  C17      1.0000 0.20400  0.45920  0.76030  Biso   1.000  C
  H14      1.0000 0.18900  0.47460  0.83750  Biso   1.000  H
  H15      1.0000 0.23650  0.38360  0.72900  Biso   1.000  H
  H16      1.0000 0.12630  0.43820  0.69920  Biso   1.000  H
  C18      1.0000 0.26920  0.74180  0.11810  Biso   1.000  C
  H17      1.0000 0.28480  0.70310  0.04150  Biso   1.000  H
  C19      1.0000 0.17150  0.66660  0.13410  Biso   1.000  C
  H18      1.0000 0.12060  0.57950  0.06830  Biso   1.000  H
  C20      1.0000 0.15020  0.72210  0.24900  Biso   1.000  C
  H19      1.0000 0.08590  0.67200  0.26200  Biso   1.000  H
  C21      1.0000 0.22600  0.85350  0.34460  Biso   1.000  C
  H20      1.0000 0.21230  0.89350  0.42200  Biso   1.000  H
  C22      1.0000 0.32300  0.92460  0.32290  Biso   1.000  C
  C23      1.0000 0.41130  0.06160  0.41650  Biso   1.000  C
  C24      1.0000 0.40830  0.13700  0.53940  Biso   1.000  C
  H21      1.0000 0.34650  0.10190  0.56540  Biso   1.000  H
  C25      1.0000 0.49860  0.26420  0.62170  Biso   1.000  C
  H22      1.0000 0.49910  0.31580  0.70410  Biso   1.000  H
  C26      1.0000 0.58800  0.31350  0.57920  Biso   1.000  C
  H23      1.0000 0.64970  0.39890  0.63300  Biso   1.000  H
  C27      1.0000 0.58520  0.23510  0.45610  Biso   1.000  C
  H24      1.0000 0.64520  0.26920  0.42790  Biso   1.000  H
  Cu2      1.0000 0.51830  0.00912  0.80549  Biso   1.000  Cu
  P2       1.0000 0.66534  0.14875  0.10875  Biso   1.000  P
  O4       1.0000 0.57410  0.11740  0.98860  Biso   1.000  O
  O5       1.0000 0.75700  0.30320  0.17680  Biso   1.000  O
  O6       1.0000 0.60830  0.13730  0.20340  Biso   1.000  O
  N3       1.0000 0.65780  0.13100  0.79020  Biso   1.000  N
  N4       1.0000 0.50160  0.88850  0.62350  Biso   1.000  N
  C28      1.0000 0.77380  0.05140  0.08340  Biso   1.000  C
  H25      1.0000 0.73280  0.96340  0.07330  Biso   1.000  H
  H26      1.0000 0.84620  0.09930  0.15930  Biso   1.000  H
  C29      1.0000 0.82230  0.02370  0.97280  Biso   1.000  C
  C30      1.0000 0.92870  0.12230  0.98640  Biso   1.000  C
  C31      1.0000 0.99480  0.24970  0.10210  Biso   1.000  C
  H27      1.0000 0.96640  0.27100  0.17110  Biso   1.000  H
  C32      1.0000 0.09870  0.34000  0.11180  Biso   1.000  C
  H28      1.0000 0.13960  0.42260  0.18750  Biso   1.000  H
  C33      1.0000 0.14620  0.31100  0.00890  Biso   1.000  C
  H29      1.0000 0.21900  0.37290  0.01870  Biso   1.000  H
  C34      1.0000 0.08560  0.19360  0.89730  Biso   1.000  C
  H30      1.0000 0.11530  0.17650  0.82950  Biso   1.000  H
  C35      1.0000 0.97560  0.09490  0.88200  Biso   1.000  C
  C36      1.0000 0.91490  0.97210  0.76680  Biso   1.000  C
  H31      1.0000 0.94470  0.95560  0.69920  Biso   1.000  H
  C37      1.0000 0.81050  0.87430  0.75220  Biso   1.000  C
  C38      1.0000 0.75050  0.74900  0.63450  Biso   1.000  C
  H32      1.0000 0.77900  0.73530  0.56650  Biso   1.000  H
  C39      1.0000 0.65250  0.64950  0.62030  Biso   1.000  C
  H33      1.0000 0.61520  0.56730  0.54360  Biso   1.000  H
  C40      1.0000 0.60700  0.67130  0.72250  Biso   1.000  C
  H34      1.0000 0.54030  0.60200  0.71190  Biso   1.000  H
  C41      1.0000 0.65820  0.79100  0.83620  Biso   1.000  C
  H35      1.0000 0.62500  0.80250  0.90100  Biso   1.000  H
  C42      1.0000 0.76250  0.89900  0.85660  Biso   1.000  C
  C43      1.0000 0.70120  0.41290  0.21560  Biso   1.000  C
  H36      1.0000 0.62410  0.38750  0.15000  Biso   1.000  H
  H37      1.0000 0.68080  0.42970  0.29160  Biso   1.000  H
  C44      1.0000 0.79600  0.54080  0.23970  Biso   1.000  C
  H38      1.0000 0.81100  0.52540  0.16250  Biso   1.000  H
  H39      1.0000 0.76350  0.61640  0.27100  Biso   1.000  H
  H40      1.0000 0.87370  0.56180  0.30080  Biso   1.000  H
  C45      1.0000 0.73080  0.25820  0.88190  Biso   1.000  C
  H41      1.0000 0.71520  0.29690  0.95850  Biso   1.000  H
  C46      1.0000 0.82850  0.33340  0.86590  Biso   1.000  C
  H42      1.0000 0.87940  0.42050  0.93170  Biso   1.000  H
  C47      1.0000 0.84980  0.27790  0.75100  Biso   1.000  C
  H43      1.0000 0.91410  0.32800  0.73800  Biso   1.000  H
  C48      1.0000 0.77400  0.14650  0.65540  Biso   1.000  C
  H44      1.0000 0.78770  0.10650  0.57800  Biso   1.000  H
  C49      1.0000 0.67700  0.07540  0.67710  Biso   1.000  C
  C50      1.0000 0.58870  0.93840  0.58350  Biso   1.000  C
  C51      1.0000 0.59170  0.86300  0.46060  Biso   1.000  C
  H45      1.0000 0.65350  0.89810  0.43460  Biso   1.000  H
  C52      1.0000 0.50140  0.73580  0.37830  Biso   1.000  C
  H46      1.0000 0.50090  0.68420  0.29590  Biso   1.000  H
  C53      1.0000 0.41200  0.68650  0.42080  Biso   1.000  C
  H47      1.0000 0.35030  0.60110  0.36700  Biso   1.000  H
  C54      1.0000 0.41480  0.76490  0.54390  Biso   1.000  C
  H48      1.0000 0.35480  0.73080  0.57210  Biso   1.000  H
