data_image0
_cell_length_a       17.3644
_cell_length_b       16.2122
_cell_length_c       16.2003
_cell_angle_alpha    90
_cell_angle_beta     103.517
_cell_angle_gamma    90

_symmetry_space_group_name_H-M    "P 1"
_symmetry_int_tables_number       1

loop_
  _symmetry_equiv_pos_as_xyz
  'x, y, z'

loop_
  _atom_site_label
  _atom_site_occupancy
  _atom_site_fract_x
  _atom_site_fract_y
  _atom_site_fract_z
  _atom_site_thermal_displace_type
  _atom_site_B_iso_or_equiv
  _atom_site_type_symbol
  C1       1.0000 0.66330  0.34710  0.57250  Biso   1.000  C
  H1       1.0000 0.66570  0.32430  0.62570  Biso   1.000  H
  C2       1.0000 0.61070  0.31300  0.50270  Biso   1.000  C
  H2       1.0000 0.57900  0.26860  0.50960  Biso   1.000  H
  C3       1.0000 0.60630  0.34530  0.42470  Biso   1.000  C
  H3       1.0000 0.57130  0.32350  0.37730  Biso   1.000  H
  C4       1.0000 0.65510  0.41190  0.41630  Biso   1.000  C
  C5       1.0000 0.65530  0.45190  0.33790  Biso   1.000  C
  C6       1.0000 0.70160  0.51820  0.33170  Biso   1.000  C
  C7       1.0000 0.75720  0.54920  0.40450  Biso   1.000  C
  C8       1.0000 0.80960  0.61380  0.40130  Biso   1.000  C
  H4       1.0000 0.80830  0.64060  0.35020  Biso   1.000  H
  C9       1.0000 0.86230  0.63740  0.47270  Biso   1.000  C
  H5       1.0000 0.89800  0.67990  0.47130  Biso   1.000  H
  C10      1.0000 0.86200  0.59670  0.54850  Biso   1.000  C
  H6       1.0000 0.89890  0.61250  0.59740  Biso   1.000  H
  C11      1.0000 0.75980  0.51180  0.48320  Biso   1.000  C
  C12      1.0000 0.70750  0.44320  0.48910  Biso   1.000  C
  C13      1.0000 0.63270  0.49640  0.20780  Biso   1.000  C
  H7       1.0000 0.61110  0.50050  0.14980  Biso   1.000  H
  C14      1.0000 0.57330  0.58600  0.52040  Biso   1.000  C
  C15      1.0000 0.56890  0.61470  0.44080  Biso   1.000  C
  H8       1.0000 0.60070  0.65870  0.43260  Biso   1.000  H
  C16      1.0000 0.51690  0.57870  0.37120  Biso   1.000  C
  H9       1.0000 0.51390  0.59890  0.31680  Biso   1.000  H
  C17      1.0000 0.52650  0.51790  0.53600  Biso   1.000  C
  C18      1.0000 0.47100  0.51450  0.38280  Biso   1.000  C
  H10      1.0000 0.43690  0.49100  0.33580  Biso   1.000  H
  C19      1.0000 0.88170  0.32940  0.51100  Biso   1.000  C
  C20      1.0000 0.89220  0.37050  0.44140  Biso   1.000  C
  H11      1.0000 0.92810  0.41400  0.44750  Biso   1.000  H
  C21      1.0000 0.84880  0.34740  0.36020  Biso   1.000  C
  H12      1.0000 0.85620  0.37550  0.31260  Biso   1.000  H
  C22      1.0000 0.79630  0.28450  0.35100  Biso   1.000  C
  H13      1.0000 0.76800  0.27020  0.29680  Biso   1.000  H
  C23      1.0000 0.78320  0.24000  0.42150  Biso   1.000  C
  C24      1.0000 0.72810  0.32630  0.91430  Biso   1.000  C
  C25      1.0000 0.71850  0.36720  0.98450  Biso   1.000  C
  H14      1.0000 0.68210  0.41010  0.97870  Biso   1.000  H
  C26      1.0000 0.76260  0.34550  0.06510  Biso   1.000  C
  H15      1.0000 0.75570  0.37460  0.11240  Biso   1.000  H
  C27      1.0000 0.81530  0.28280  0.07530  Biso   1.000  C
  H16      1.0000 0.84380  0.26870  0.12950  Biso   1.000  H
  C28      1.0000 0.82760  0.26200  0.50380  Biso   1.000  C
  C29      1.0000 0.93960  0.36810  0.85850  Biso   1.000  C
  H17      1.0000 0.94490  0.34340  0.80830  Biso   1.000  H
  C30      1.0000 0.98640  0.33850  0.93500  Biso   1.000  C
  H18      1.0000 0.02240  0.29600  0.93510  Biso   1.000  H
  C31      1.0000 0.97860  0.37270  0.00930  Biso   1.000  C
  H19      1.0000 0.00830  0.35320  0.06100  Biso   1.000  H
  C32      1.0000 0.92510  0.43770  0.00690  Biso   1.000  C
  C33      1.0000 0.91190  0.47800  0.08070  Biso   1.000  C
  C34      1.0000 0.91400  0.51800  0.20710  Biso   1.000  C
  H20      1.0000 0.92690  0.52320  0.26590  Biso   1.000  H
  C35      1.0000 0.85690  0.53970  0.07400  Biso   1.000  C
  C36      1.0000 0.81050  0.56930  0.99600  Biso   1.000  C
  C37      1.0000 0.75690  0.63460  0.98790  Biso   1.000  C
  H21      1.0000 0.75040  0.66270  0.03590  Biso   1.000  H
  C38      1.0000 0.71470  0.65680  0.91030  Biso   1.000  C
  H22      1.0000 0.67810  0.69960  0.90400  Biso   1.000  H
  C39      1.0000 0.72700  0.61450  0.83970  Biso   1.000  C
  H23      1.0000 0.69680  0.62940  0.78650  Biso   1.000  H
  C40      1.0000 0.82170  0.53100  0.92160  Biso   1.000  C
  C41      1.0000 0.87970  0.46450  0.92780  Biso   1.000  C
  Pr1      1.0000 0.79849  0.48017  0.70445  Biso   1.000  Pr
  N1       1.0000 0.71043  0.41064  0.56700  Biso   1.000  N
  N2       1.0000 0.81154  0.53640  0.55450  Biso   1.000  N
  N3       1.0000 0.68760  0.54660  0.24880  Biso   1.000  N
  N4       1.0000 0.61020  0.43830  0.25670  Biso   1.000  N
  H24      1.0000 0.57510  0.40050  0.24070  Biso   1.000  H
  N5       1.0000 0.88810  0.42939  0.85320  Biso   1.000  N
  N6       1.0000 0.77960  0.55390  0.84430  Biso   1.000  N
  N7       1.0000 0.94810  0.46450  0.16550  Biso   1.000  N
  N8       1.0000 0.85870  0.56390  0.15570  Biso   1.000  N
  H25      1.0000 0.82990  0.60140  0.17090  Biso   1.000  H
  O1       1.0000 0.69277  0.57489  0.65240  Biso   1.000  O
  O2       1.0000 0.67921  0.69984  0.56970  Biso   1.000  O
  O3       1.0000 0.58959  0.67118  0.65930  Biso   1.000  O
  O4       1.0000 0.88421  0.38185  0.66383  Biso   1.000  O
  O5       1.0000 0.98756  0.29060  0.64700  Biso   1.000  O
  O6       1.0000 0.98617  0.43250  0.59690  Biso   1.000  O
  O7       1.0000 0.72171  0.38491  0.76377  Biso   1.000  O
  O8       1.0000 0.61770  0.42160  0.83050  Biso   1.000  O
  O9       1.0000 0.62517  0.28420  0.77630  Biso   1.000  O
  S1       1.0000 0.63806  0.63807  0.60613  Biso   1.000  S
  S2       1.0000 0.94096  0.36172  0.61118  Biso   1.000  S
  S3       1.0000 0.66689  0.35663  0.81440  Biso   1.000  S
  C42      1.0000 0.33670  0.84710  0.92750  Biso   1.000  C
  H26      1.0000 0.33430  0.82430  0.87430  Biso   1.000  H
  C43      1.0000 0.38930  0.81300  0.99730  Biso   1.000  C
  H27      1.0000 0.42100  0.76860  0.99040  Biso   1.000  H
  C44      1.0000 0.39370  0.84530  0.07530  Biso   1.000  C
  H28      1.0000 0.42870  0.82350  0.12270  Biso   1.000  H
  C45      1.0000 0.34490  0.91190  0.08370  Biso   1.000  C
  C46      1.0000 0.34470  0.95190  0.16210  Biso   1.000  C
  C47      1.0000 0.29840  0.01820  0.16830  Biso   1.000  C
  C48      1.0000 0.24280  0.04920  0.09550  Biso   1.000  C
  C49      1.0000 0.19040  0.11380  0.09870  Biso   1.000  C
  H29      1.0000 0.19170  0.14060  0.14980  Biso   1.000  H
  C50      1.0000 0.13770  0.13740  0.02730  Biso   1.000  C
  H30      1.0000 0.10200  0.17990  0.02870  Biso   1.000  H
  C51      1.0000 0.13800  0.09670  0.95150  Biso   1.000  C
  H31      1.0000 0.10110  0.11250  0.90260  Biso   1.000  H
  C52      1.0000 0.24020  0.01180  0.01680  Biso   1.000  C
  C53      1.0000 0.29250  0.94320  0.01090  Biso   1.000  C
  C54      1.0000 0.36730  0.99640  0.29220  Biso   1.000  C
  H32      1.0000 0.38890  0.00050  0.35020  Biso   1.000  H
  C55      1.0000 0.42670  0.08600  0.97960  Biso   1.000  C
  C56      1.0000 0.43110  0.11470  0.05920  Biso   1.000  C
  H33      1.0000 0.39930  0.15870  0.06740  Biso   1.000  H
  C57      1.0000 0.48310  0.07870  0.12880  Biso   1.000  C
  H34      1.0000 0.48610  0.09890  0.18320  Biso   1.000  H
  C58      1.0000 0.47350  0.01790  0.96400  Biso   1.000  C
  C59      1.0000 0.52900  0.01450  0.11720  Biso   1.000  C
  H35      1.0000 0.56310  0.99100  0.16420  Biso   1.000  H
  C60      1.0000 0.11830  0.82940  0.98900  Biso   1.000  C
  C61      1.0000 0.10780  0.87050  0.05860  Biso   1.000  C
  H36      1.0000 0.07190  0.91400  0.05250  Biso   1.000  H
  C62      1.0000 0.15120  0.84740  0.13980  Biso   1.000  C
  H37      1.0000 0.14380  0.87550  0.18740  Biso   1.000  H
  C63      1.0000 0.20370  0.78450  0.14900  Biso   1.000  C
  H38      1.0000 0.23200  0.77020  0.20320  Biso   1.000  H
  C64      1.0000 0.21680  0.74000  0.07850  Biso   1.000  C
  C65      1.0000 0.27190  0.82630  0.58570  Biso   1.000  C
  C66      1.0000 0.28150  0.86720  0.51550  Biso   1.000  C
  H39      1.0000 0.31790  0.91010  0.52130  Biso   1.000  H
  C67      1.0000 0.23740  0.84550  0.43490  Biso   1.000  C
  H40      1.0000 0.24430  0.87460  0.38760  Biso   1.000  H
  C68      1.0000 0.18470  0.78280  0.42470  Biso   1.000  C
  H41      1.0000 0.15620  0.76870  0.37050  Biso   1.000  H
  C69      1.0000 0.17240  0.76200  0.99620  Biso   1.000  C
  C70      1.0000 0.06040  0.86810  0.64150  Biso   1.000  C
  H42      1.0000 0.05510  0.84340  0.69170  Biso   1.000  H
  C71      1.0000 0.01360  0.83850  0.56500  Biso   1.000  C
  H43      1.0000 0.97760  0.79600  0.56490  Biso   1.000  H
  C72      1.0000 0.02140  0.87270  0.49070  Biso   1.000  C
  H44      1.0000 0.99170  0.85320  0.43900  Biso   1.000  H
  C73      1.0000 0.07490  0.93770  0.49310  Biso   1.000  C
  C74      1.0000 0.08810  0.97800  0.41930  Biso   1.000  C
  C75      1.0000 0.08600  0.01800  0.29290  Biso   1.000  C
  H45      1.0000 0.07310  0.02320  0.23410  Biso   1.000  H
  C76      1.0000 0.14310  0.03970  0.42600  Biso   1.000  C
  C77      1.0000 0.18950  0.06930  0.50400  Biso   1.000  C
  C78      1.0000 0.24310  0.13460  0.51210  Biso   1.000  C
  H46      1.0000 0.24960  0.16270  0.46410  Biso   1.000  H
  C79      1.0000 0.28530  0.15680  0.58970  Biso   1.000  C
  H47      1.0000 0.32190  0.19960  0.59600  Biso   1.000  H
  C80      1.0000 0.27300  0.11450  0.66030  Biso   1.000  C
  H48      1.0000 0.30320  0.12940  0.71350  Biso   1.000  H
  C81      1.0000 0.17830  0.03100  0.57840  Biso   1.000  C
  C82      1.0000 0.12030  0.96450  0.57220  Biso   1.000  C
  Pr2      1.0000 0.20151  0.98017  0.79555  Biso   1.000  Pr
  N9       1.0000 0.28957  0.91064  0.93300  Biso   1.000  N
  N10      1.0000 0.18846  0.03640  0.94550  Biso   1.000  N
  N11      1.0000 0.31240  0.04660  0.25120  Biso   1.000  N
  N12      1.0000 0.38980  0.93830  0.24330  Biso   1.000  N
  H49      1.0000 0.42490  0.90050  0.25930  Biso   1.000  H
  N13      1.0000 0.11190  0.92939  0.64680  Biso   1.000  N
  N14      1.0000 0.22040  0.05390  0.65570  Biso   1.000  N
  N15      1.0000 0.05190  0.96450  0.33450  Biso   1.000  N
  N16      1.0000 0.14130  0.06390  0.34430  Biso   1.000  N
  H50      1.0000 0.17010  0.10140  0.32910  Biso   1.000  H
  O10      1.0000 0.30723  0.07489  0.84760  Biso   1.000  O
  O11      1.0000 0.32079  0.19984  0.93030  Biso   1.000  O
  O12      1.0000 0.41041  0.17118  0.84070  Biso   1.000  O
  O13      1.0000 0.11579  0.88185  0.83617  Biso   1.000  O
  O14      1.0000 0.01244  0.79060  0.85300  Biso   1.000  O
  O15      1.0000 0.01383  0.93250  0.90310  Biso   1.000  O
  O16      1.0000 0.27829  0.88491  0.73623  Biso   1.000  O
  O17      1.0000 0.38230  0.92160  0.66950  Biso   1.000  O
  O18      1.0000 0.37483  0.78420  0.72370  Biso   1.000  O
  S4       1.0000 0.36194  0.13807  0.89387  Biso   1.000  S
  S5       1.0000 0.05904  0.86172  0.88882  Biso   1.000  S
  S6       1.0000 0.33311  0.85663  0.68560  Biso   1.000  S
  C83      1.0000 0.33670  0.65290  0.42750  Biso   1.000  C
  H51      1.0000 0.33430  0.67570  0.37430  Biso   1.000  H
  C84      1.0000 0.38930  0.68700  0.49730  Biso   1.000  C
  H52      1.0000 0.42100  0.73140  0.49040  Biso   1.000  H
  C85      1.0000 0.39370  0.65470  0.57530  Biso   1.000  C
  H53      1.0000 0.42870  0.67650  0.62270  Biso   1.000  H
  C86      1.0000 0.34490  0.58810  0.58370  Biso   1.000  C
  C87      1.0000 0.34470  0.54810  0.66210  Biso   1.000  C
  C88      1.0000 0.29840  0.48180  0.66830  Biso   1.000  C
  C89      1.0000 0.24280  0.45080  0.59550  Biso   1.000  C
  C90      1.0000 0.19040  0.38620  0.59870  Biso   1.000  C
  H54      1.0000 0.19170  0.35940  0.64980  Biso   1.000  H
  C91      1.0000 0.13770  0.36260  0.52730  Biso   1.000  C
  H55      1.0000 0.10200  0.32010  0.52870  Biso   1.000  H
  C92      1.0000 0.13800  0.40330  0.45150  Biso   1.000  C
  H56      1.0000 0.10110  0.38750  0.40260  Biso   1.000  H
  C93      1.0000 0.24020  0.48820  0.51680  Biso   1.000  C
  C94      1.0000 0.29250  0.55680  0.51090  Biso   1.000  C
  C95      1.0000 0.36730  0.50360  0.79220  Biso   1.000  C
  H57      1.0000 0.38890  0.49950  0.85020  Biso   1.000  H
  C96      1.0000 0.42670  0.41400  0.47960  Biso   1.000  C
  C97      1.0000 0.43110  0.38530  0.55920  Biso   1.000  C
  H58      1.0000 0.39930  0.34130  0.56740  Biso   1.000  H
  C98      1.0000 0.48310  0.42130  0.62880  Biso   1.000  C
  H59      1.0000 0.48610  0.40110  0.68320  Biso   1.000  H
  C99      1.0000 0.47350  0.48210  0.46400  Biso   1.000  C
  C100     1.0000 0.52900  0.48550  0.61720  Biso   1.000  C
  H60      1.0000 0.56310  0.50900  0.66420  Biso   1.000  H
  C101     1.0000 0.11830  0.67060  0.48900  Biso   1.000  C
  C102     1.0000 0.10780  0.62950  0.55860  Biso   1.000  C
  H61      1.0000 0.07190  0.58600  0.55250  Biso   1.000  H
  C103     1.0000 0.15120  0.65260  0.63980  Biso   1.000  C
  H62      1.0000 0.14380  0.62450  0.68740  Biso   1.000  H
  C104     1.0000 0.20370  0.71550  0.64900  Biso   1.000  C
  H63      1.0000 0.23200  0.72980  0.70320  Biso   1.000  H
  C105     1.0000 0.21680  0.76000  0.57850  Biso   1.000  C
  C106     1.0000 0.27190  0.67370  0.08570  Biso   1.000  C
  C107     1.0000 0.28150  0.63280  0.01550  Biso   1.000  C
  H64      1.0000 0.31790  0.58990  0.02130  Biso   1.000  H
  C108     1.0000 0.23740  0.65450  0.93490  Biso   1.000  C
  H65      1.0000 0.24430  0.62540  0.88760  Biso   1.000  H
  C109     1.0000 0.18470  0.71720  0.92470  Biso   1.000  C
  H66      1.0000 0.15620  0.73130  0.87050  Biso   1.000  H
  C110     1.0000 0.17240  0.73800  0.49620  Biso   1.000  C
  C111     1.0000 0.06040  0.63190  0.14150  Biso   1.000  C
  H67      1.0000 0.05510  0.65660  0.19170  Biso   1.000  H
  C112     1.0000 0.01360  0.66150  0.06500  Biso   1.000  C
  H68      1.0000 0.97760  0.70400  0.06490  Biso   1.000  H
  C113     1.0000 0.02140  0.62730  0.99070  Biso   1.000  C
  H69      1.0000 0.99170  0.64680  0.93900  Biso   1.000  H
  C114     1.0000 0.07490  0.56230  0.99310  Biso   1.000  C
  C115     1.0000 0.08810  0.52200  0.91930  Biso   1.000  C
  C116     1.0000 0.08600  0.48200  0.79290  Biso   1.000  C
  H70      1.0000 0.07310  0.47680  0.73410  Biso   1.000  H
  C117     1.0000 0.14310  0.46030  0.92600  Biso   1.000  C
  C118     1.0000 0.18950  0.43070  0.00400  Biso   1.000  C
  C119     1.0000 0.24310  0.36540  0.01210  Biso   1.000  C
  H71      1.0000 0.24960  0.33730  0.96410  Biso   1.000  H
  C120     1.0000 0.28530  0.34320  0.08970  Biso   1.000  C
  H72      1.0000 0.32190  0.30040  0.09600  Biso   1.000  H
  C121     1.0000 0.27300  0.38550  0.16030  Biso   1.000  C
  H73      1.0000 0.30320  0.37060  0.21350  Biso   1.000  H
  C122     1.0000 0.17830  0.46900  0.07840  Biso   1.000  C
  C123     1.0000 0.12030  0.53550  0.07220  Biso   1.000  C
  Pr3      1.0000 0.20151  0.51983  0.29555  Biso   1.000  Pr
  N17      1.0000 0.28957  0.58936  0.43300  Biso   1.000  N
  N18      1.0000 0.18846  0.46360  0.44550  Biso   1.000  N
  N19      1.0000 0.31240  0.45340  0.75120  Biso   1.000  N
  N20      1.0000 0.38980  0.56170  0.74330  Biso   1.000  N
  H74      1.0000 0.42490  0.59950  0.75930  Biso   1.000  H
  N21      1.0000 0.11190  0.57061  0.14680  Biso   1.000  N
  N22      1.0000 0.22040  0.44610  0.15570  Biso   1.000  N
  N23      1.0000 0.05190  0.53550  0.83450  Biso   1.000  N
  N24      1.0000 0.14130  0.43610  0.84430  Biso   1.000  N
  H75      1.0000 0.17010  0.39860  0.82910  Biso   1.000  H
  O19      1.0000 0.30723  0.42511  0.34760  Biso   1.000  O
  O20      1.0000 0.32079  0.30016  0.43030  Biso   1.000  O
  O21      1.0000 0.41041  0.32882  0.34070  Biso   1.000  O
  O22      1.0000 0.11579  0.61815  0.33617  Biso   1.000  O
  O23      1.0000 0.01244  0.70940  0.35300  Biso   1.000  O
  O24      1.0000 0.01383  0.56750  0.40310  Biso   1.000  O
  O25      1.0000 0.27829  0.61509  0.23623  Biso   1.000  O
  O26      1.0000 0.38230  0.57840  0.16950  Biso   1.000  O
  O27      1.0000 0.37483  0.71580  0.22370  Biso   1.000  O
  S7       1.0000 0.36194  0.36193  0.39387  Biso   1.000  S
  S8       1.0000 0.05904  0.63828  0.38882  Biso   1.000  S
  S9       1.0000 0.33311  0.64337  0.18560  Biso   1.000  S
  C124     1.0000 0.66330  0.15290  0.07250  Biso   1.000  C
  H76      1.0000 0.66570  0.17570  0.12570  Biso   1.000  H
  C125     1.0000 0.61070  0.18700  0.00270  Biso   1.000  C
  H77      1.0000 0.57900  0.23140  0.00960  Biso   1.000  H
  C126     1.0000 0.60630  0.15470  0.92470  Biso   1.000  C
  H78      1.0000 0.57130  0.17650  0.87730  Biso   1.000  H
  C127     1.0000 0.65510  0.08810  0.91630  Biso   1.000  C
  C128     1.0000 0.65530  0.04810  0.83790  Biso   1.000  C
  C129     1.0000 0.70160  0.98180  0.83170  Biso   1.000  C
  C130     1.0000 0.75720  0.95080  0.90450  Biso   1.000  C
  C131     1.0000 0.80960  0.88620  0.90130  Biso   1.000  C
  H79      1.0000 0.80830  0.85940  0.85020  Biso   1.000  H
  C132     1.0000 0.86230  0.86260  0.97270  Biso   1.000  C
  H80      1.0000 0.89800  0.82010  0.97130  Biso   1.000  H
  C133     1.0000 0.86200  0.90330  0.04850  Biso   1.000  C
  H81      1.0000 0.89890  0.88750  0.09740  Biso   1.000  H
  C134     1.0000 0.75980  0.98820  0.98320  Biso   1.000  C
  C135     1.0000 0.70750  0.05680  0.98910  Biso   1.000  C
  C136     1.0000 0.63270  0.00360  0.70780  Biso   1.000  C
  H82      1.0000 0.61110  0.99950  0.64980  Biso   1.000  H
  C137     1.0000 0.57330  0.91400  0.02040  Biso   1.000  C
  C138     1.0000 0.56890  0.88530  0.94080  Biso   1.000  C
  H83      1.0000 0.60070  0.84130  0.93260  Biso   1.000  H
  C139     1.0000 0.51690  0.92130  0.87120  Biso   1.000  C
  H84      1.0000 0.51390  0.90110  0.81680  Biso   1.000  H
  C140     1.0000 0.52650  0.98210  0.03600  Biso   1.000  C
  C141     1.0000 0.47100  0.98550  0.88280  Biso   1.000  C
  H85      1.0000 0.43690  0.00900  0.83580  Biso   1.000  H
  C142     1.0000 0.88170  0.17060  0.01100  Biso   1.000  C
  C143     1.0000 0.89220  0.12950  0.94140  Biso   1.000  C
  H86      1.0000 0.92810  0.08600  0.94750  Biso   1.000  H
  C144     1.0000 0.84880  0.15260  0.86020  Biso   1.000  C
  H87      1.0000 0.85620  0.12450  0.81260  Biso   1.000  H
  C145     1.0000 0.79630  0.21550  0.85100  Biso   1.000  C
  H88      1.0000 0.76800  0.22980  0.79680  Biso   1.000  H
  C146     1.0000 0.78320  0.26000  0.92150  Biso   1.000  C
  C147     1.0000 0.72810  0.17370  0.41430  Biso   1.000  C
  C148     1.0000 0.71850  0.13280  0.48450  Biso   1.000  C
  H89      1.0000 0.68210  0.08990  0.47870  Biso   1.000  H
  C149     1.0000 0.76260  0.15450  0.56510  Biso   1.000  C
  H90      1.0000 0.75570  0.12540  0.61240  Biso   1.000  H
  C150     1.0000 0.81530  0.21720  0.57530  Biso   1.000  C
  H91      1.0000 0.84380  0.23130  0.62950  Biso   1.000  H
  C151     1.0000 0.82760  0.23800  0.00380  Biso   1.000  C
  C152     1.0000 0.93960  0.13190  0.35850  Biso   1.000  C
  H92      1.0000 0.94490  0.15660  0.30830  Biso   1.000  H
  C153     1.0000 0.98640  0.16150  0.43500  Biso   1.000  C
  H93      1.0000 0.02240  0.20400  0.43510  Biso   1.000  H
  C154     1.0000 0.97860  0.12730  0.50930  Biso   1.000  C
  H94      1.0000 0.00830  0.14680  0.56100  Biso   1.000  H
  C155     1.0000 0.92510  0.06230  0.50690  Biso   1.000  C
  C156     1.0000 0.91190  0.02200  0.58070  Biso   1.000  C
  C157     1.0000 0.91400  0.98200  0.70710  Biso   1.000  C
  H95      1.0000 0.92690  0.97680  0.76590  Biso   1.000  H
  C158     1.0000 0.85690  0.96030  0.57400  Biso   1.000  C
  C159     1.0000 0.81050  0.93070  0.49600  Biso   1.000  C
  C160     1.0000 0.75690  0.86540  0.48790  Biso   1.000  C
  H96      1.0000 0.75040  0.83730  0.53590  Biso   1.000  H
  C161     1.0000 0.71470  0.84320  0.41030  Biso   1.000  C
  H97      1.0000 0.67810  0.80040  0.40400  Biso   1.000  H
  C162     1.0000 0.72700  0.88550  0.33970  Biso   1.000  C
  H98      1.0000 0.69680  0.87060  0.28650  Biso   1.000  H
  C163     1.0000 0.82170  0.96900  0.42160  Biso   1.000  C
  C164     1.0000 0.87970  0.03550  0.42780  Biso   1.000  C
  Pr4      1.0000 0.79849  0.01983  0.20445  Biso   1.000  Pr
  N25      1.0000 0.71043  0.08936  0.06700  Biso   1.000  N
  N26      1.0000 0.81154  0.96360  0.05450  Biso   1.000  N
  N27      1.0000 0.68760  0.95340  0.74880  Biso   1.000  N
  N28      1.0000 0.61020  0.06170  0.75670  Biso   1.000  N
  H99      1.0000 0.57510  0.09950  0.74070  Biso   1.000  H
  N29      1.0000 0.88810  0.07061  0.35320  Biso   1.000  N
  N30      1.0000 0.77960  0.94610  0.34430  Biso   1.000  N
  N31      1.0000 0.94810  0.03550  0.66550  Biso   1.000  N
  N32      1.0000 0.85870  0.93610  0.65570  Biso   1.000  N
  H100     1.0000 0.82990  0.89860  0.67090  Biso   1.000  H
  O28      1.0000 0.69277  0.92511  0.15240  Biso   1.000  O
  O29      1.0000 0.67921  0.80016  0.06970  Biso   1.000  O
  O30      1.0000 0.58959  0.82882  0.15930  Biso   1.000  O
  O31      1.0000 0.88421  0.11815  0.16383  Biso   1.000  O
  O32      1.0000 0.98756  0.20940  0.14700  Biso   1.000  O
  O33      1.0000 0.98617  0.06750  0.09690  Biso   1.000  O
  O34      1.0000 0.72171  0.11509  0.26377  Biso   1.000  O
  O35      1.0000 0.61770  0.07840  0.33050  Biso   1.000  O
  O36      1.0000 0.62517  0.21580  0.27630  Biso   1.000  O
  S10      1.0000 0.63806  0.86193  0.10613  Biso   1.000  S
  S11      1.0000 0.94096  0.13828  0.11118  Biso   1.000  S
  S12      1.0000 0.66689  0.14337  0.31440  Biso   1.000  S
