data_image0
_cell_length_a       11.8801
_cell_length_b       13.7323
_cell_length_c       13.9872
_cell_angle_alpha    84.567
_cell_angle_beta     79.104
_cell_angle_gamma    79.225

_symmetry_space_group_name_H-M    "P 1"
_symmetry_int_tables_number       1

loop_
  _symmetry_equiv_pos_as_xyz
  'x, y, z'

loop_
  _atom_site_label
  _atom_site_occupancy
  _atom_site_fract_x
  _atom_site_fract_y
  _atom_site_fract_z
  _atom_site_thermal_displace_type
  _atom_site_B_iso_or_equiv
  _atom_site_type_symbol
  Zn1      1.0000 0.74378  0.07907  0.23088  Biso   1.000  Zn
  N1       1.0000 0.71980  0.09400  0.08400  Biso   1.000  N
  N2       1.0000 0.77260  0.22480  0.19200  Biso   1.000  N
  N3       1.0000 0.56720  0.10700  0.29540  Biso   1.000  N
  N4       1.0000 0.75560  0.08670  0.38190  Biso   1.000  N
  C1       1.0000 0.69770  0.02550  0.03340  Biso   1.000  C
  H1       1.0000 0.69580  0.96140  0.06090  Biso   1.000  H
  C2       1.0000 0.67680  0.05040  0.93700  Biso   1.000  C
  H2       1.0000 0.65830  0.00250  0.90280  Biso   1.000  H
  C3       1.0000 0.68310  0.14060  0.89390  Biso   1.000  C
  H3       1.0000 0.67020  0.15510  0.83020  Biso   1.000  H
  C4       1.0000 0.70950  0.21360  0.94650  Biso   1.000  C
  C5       1.0000 0.72700  0.18590  0.04270  Biso   1.000  C
  C6       1.0000 0.71780  0.31440  0.90880  Biso   1.000  C
  H4       1.0000 0.70680  0.33380  0.84520  Biso   1.000  H
  C7       1.0000 0.74140  0.38120  0.96510  Biso   1.000  C
  H5       1.0000 0.74570  0.44560  0.93920  Biso   1.000  H
  C8       1.0000 0.75980  0.35500  0.06260  Biso   1.000  C
  C9       1.0000 0.75380  0.25730  0.09890  Biso   1.000  C
  C10      1.0000 0.78610  0.41770  0.12390  Biso   1.000  C
  H6       1.0000 0.79170  0.48290  0.10170  Biso   1.000  H
  C11      1.0000 0.80360  0.38660  0.21460  Biso   1.000  C
  H7       1.0000 0.81900  0.42980  0.25590  Biso   1.000  H
  C12      1.0000 0.79830  0.28830  0.24520  Biso   1.000  C
  H8       1.0000 0.81380  0.26610  0.30700  Biso   1.000  H
  C13      1.0000 0.47440  0.11770  0.25280  Biso   1.000  C
  H9       1.0000 0.48590  0.11300  0.18560  Biso   1.000  H
  C14      1.0000 0.36070  0.13570  0.30390  Biso   1.000  C
  H10      1.0000 0.29780  0.14300  0.27150  Biso   1.000  H
  C15      1.0000 0.34340  0.14250  0.40220  Biso   1.000  C
  H11      1.0000 0.26810  0.15580  0.43740  Biso   1.000  H
  C16      1.0000 0.43960  0.12910  0.45090  Biso   1.000  C
  C17      1.0000 0.54890  0.11340  0.39370  Biso   1.000  C
  C18      1.0000 0.65030  0.10260  0.44130  Biso   1.000  C
  C19      1.0000 0.42740  0.13330  0.55420  Biso   1.000  C
  H12      1.0000 0.35350  0.14380  0.59220  Biso   1.000  H
  C20      1.0000 0.52160  0.12220  0.59730  Biso   1.000  C
  H13      1.0000 0.51170  0.12400  0.66470  Biso   1.000  H
  C21      1.0000 0.63640  0.10760  0.54130  Biso   1.000  C
  C22      1.0000 0.73840  0.09420  0.58120  Biso   1.000  C
  H14      1.0000 0.73360  0.09600  0.64820  Biso   1.000  H
  C23      1.0000 0.84220  0.07890  0.52360  Biso   1.000  C
  H15      1.0000 0.90980  0.06930  0.55020  Biso   1.000  H
  C24      1.0000 0.84910  0.07740  0.42410  Biso   1.000  C
  H16      1.0000 0.92220  0.06960  0.38470  Biso   1.000  H
  Zn2      1.0000 0.25622  0.92093  0.76912  Biso   1.000  Zn
  N5       1.0000 0.28020  0.90600  0.91600  Biso   1.000  N
  N6       1.0000 0.22740  0.77520  0.80800  Biso   1.000  N
  N7       1.0000 0.43280  0.89300  0.70460  Biso   1.000  N
  N8       1.0000 0.24440  0.91330  0.61810  Biso   1.000  N
  C25      1.0000 0.30230  0.97450  0.96660  Biso   1.000  C
  H17      1.0000 0.30420  0.03860  0.93910  Biso   1.000  H
  C26      1.0000 0.32320  0.94960  0.06300  Biso   1.000  C
  H18      1.0000 0.34170  0.99750  0.09720  Biso   1.000  H
  C27      1.0000 0.31690  0.85940  0.10610  Biso   1.000  C
  H19      1.0000 0.32980  0.84490  0.16980  Biso   1.000  H
  C28      1.0000 0.29050  0.78640  0.05350  Biso   1.000  C
  C29      1.0000 0.27300  0.81410  0.95730  Biso   1.000  C
  C30      1.0000 0.28220  0.68560  0.09120  Biso   1.000  C
  H20      1.0000 0.29320  0.66620  0.15480  Biso   1.000  H
  C31      1.0000 0.25860  0.61880  0.03490  Biso   1.000  C
  H21      1.0000 0.25430  0.55440  0.06080  Biso   1.000  H
  C32      1.0000 0.24020  0.64500  0.93740  Biso   1.000  C
  C33      1.0000 0.24620  0.74270  0.90110  Biso   1.000  C
  C34      1.0000 0.21390  0.58230  0.87610  Biso   1.000  C
  H22      1.0000 0.20830  0.51710  0.89830  Biso   1.000  H
  C35      1.0000 0.19640  0.61340  0.78540  Biso   1.000  C
  H23      1.0000 0.18100  0.57020  0.74410  Biso   1.000  H
  C36      1.0000 0.20170  0.71170  0.75480  Biso   1.000  C
  H24      1.0000 0.18620  0.73390  0.69300  Biso   1.000  H
  C37      1.0000 0.52560  0.88230  0.74720  Biso   1.000  C
  H25      1.0000 0.51410  0.88700  0.81440  Biso   1.000  H
  C38      1.0000 0.63930  0.86430  0.69610  Biso   1.000  C
  H26      1.0000 0.70220  0.85700  0.72850  Biso   1.000  H
  C39      1.0000 0.65660  0.85750  0.59780  Biso   1.000  C
  H27      1.0000 0.73190  0.84420  0.56260  Biso   1.000  H
  C40      1.0000 0.56040  0.87090  0.54910  Biso   1.000  C
  C41      1.0000 0.45110  0.88660  0.60630  Biso   1.000  C
  C42      1.0000 0.34970  0.89740  0.55870  Biso   1.000  C
  C43      1.0000 0.57260  0.86670  0.44580  Biso   1.000  C
  H28      1.0000 0.64650  0.85620  0.40780  Biso   1.000  H
  C44      1.0000 0.47840  0.87780  0.40270  Biso   1.000  C
  H29      1.0000 0.48830  0.87600  0.33530  Biso   1.000  H
  C45      1.0000 0.36360  0.89240  0.45870  Biso   1.000  C
  C46      1.0000 0.26160  0.90580  0.41880  Biso   1.000  C
  H30      1.0000 0.26640  0.90400  0.35180  Biso   1.000  H
  C47      1.0000 0.15780  0.92110  0.47640  Biso   1.000  C
  H31      1.0000 0.09020  0.93070  0.44980  Biso   1.000  H
  C48      1.0000 0.15090  0.92260  0.57590  Biso   1.000  C
  H32      1.0000 0.07780  0.93040  0.61530  Biso   1.000  H
  O1       1.0000 0.91190  0.98180  0.21630  Biso   1.000  O
  O2       1.0000 0.75720  0.91210  0.24320  Biso   1.000  O
  O3       1.0000 0.09190  0.65590  0.55520  Biso   1.000  O
  O4       1.0000 0.93690  0.77720  0.57310  Biso   1.000  O
  H33      1.0000 0.94720  0.77130  0.62980  Biso   1.000  H
  O5       1.0000 0.91660  0.76910  0.76140  Biso   1.000  O
  O6       1.0000 0.86850  0.62070  0.81400  Biso   1.000  O
  H34      1.0000 0.83010  0.62930  0.77010  Biso   1.000  H
  C49      1.0000 0.86320  0.90610  0.23970  Biso   1.000  C
  C50      1.0000 0.93350  0.81110  0.27450  Biso   1.000  C
  C51      1.0000 0.94610  0.80610  0.37250  Biso   1.000  C
  H35      1.0000 0.91230  0.86010  0.40980  Biso   1.000  H
  C52      1.0000 0.00760  0.72280  0.41570  Biso   1.000  C
  C53      1.0000 0.05820  0.64310  0.35900  Biso   1.000  C
  H36      1.0000 0.10270  0.58750  0.38520  Biso   1.000  H
  C54      1.0000 0.04220  0.64680  0.26320  Biso   1.000  C
  H37      1.0000 0.07470  0.59190  0.22680  Biso   1.000  H
  C55      1.0000 0.97990  0.72840  0.21910  Biso   1.000  C
  C56      1.0000 0.01780  0.71520  0.52080  Biso   1.000  C
  C57      1.0000 0.96120  0.72500  0.11680  Biso   1.000  C
  C58      1.0000 0.96410  0.80610  0.04850  Biso   1.000  C
  H38      1.0000 0.97870  0.86550  0.06620  Biso   1.000  H
  C59      1.0000 0.94540  0.79890  0.95420  Biso   1.000  C
  H39      1.0000 0.94800  0.85320  0.90930  Biso   1.000  H
  C60      1.0000 0.92290  0.71040  0.92720  Biso   1.000  C
  C61      1.0000 0.92300  0.63000  0.99350  Biso   1.000  C
  H40      1.0000 0.91030  0.57010  0.97520  Biso   1.000  H
  C62      1.0000 0.94200  0.63670  0.08790  Biso   1.000  C
  H41      1.0000 0.94170  0.58150  0.13180  Biso   1.000  H
  C63      1.0000 0.90030  0.70180  0.82570  Biso   1.000  C
  O7       1.0000 0.08810  0.01820  0.78370  Biso   1.000  O
  O8       1.0000 0.24280  0.08790  0.75680  Biso   1.000  O
  O9       1.0000 0.90810  0.34410  0.44480  Biso   1.000  O
  O10      1.0000 0.06310  0.22280  0.42690  Biso   1.000  O
  H42      1.0000 0.05280  0.22870  0.37020  Biso   1.000  H
  O11      1.0000 0.08340  0.23090  0.23860  Biso   1.000  O
  O12      1.0000 0.13150  0.37930  0.18600  Biso   1.000  O
  H43      1.0000 0.16990  0.37070  0.22990  Biso   1.000  H
  C64      1.0000 0.13680  0.09390  0.76030  Biso   1.000  C
  C65      1.0000 0.06650  0.18890  0.72550  Biso   1.000  C
  C66      1.0000 0.05390  0.19390  0.62750  Biso   1.000  C
  H44      1.0000 0.08770  0.13990  0.59020  Biso   1.000  H
  C67      1.0000 0.99240  0.27720  0.58430  Biso   1.000  C
  C68      1.0000 0.94180  0.35690  0.64100  Biso   1.000  C
  H45      1.0000 0.89730  0.41250  0.61480  Biso   1.000  H
  C69      1.0000 0.95780  0.35320  0.73680  Biso   1.000  C
  H46      1.0000 0.92530  0.40810  0.77320  Biso   1.000  H
  C70      1.0000 0.02010  0.27160  0.78090  Biso   1.000  C
  C71      1.0000 0.98220  0.28480  0.47920  Biso   1.000  C
  C72      1.0000 0.03880  0.27500  0.88320  Biso   1.000  C
  C73      1.0000 0.03590  0.19390  0.95150  Biso   1.000  C
  H47      1.0000 0.02130  0.13450  0.93380  Biso   1.000  H
  C74      1.0000 0.05460  0.20110  0.04580  Biso   1.000  C
  H48      1.0000 0.05200  0.14680  0.09070  Biso   1.000  H
  C75      1.0000 0.07710  0.28960  0.07280  Biso   1.000  C
  C76      1.0000 0.07700  0.37000  0.00650  Biso   1.000  C
  H49      1.0000 0.08970  0.42990  0.02480  Biso   1.000  H
  C77      1.0000 0.05800  0.36330  0.91210  Biso   1.000  C
  H50      1.0000 0.05830  0.41850  0.86820  Biso   1.000  H
  C78      1.0000 0.09970  0.29820  0.17430  Biso   1.000  C
