data_image0
_cell_length_a       9.1586
_cell_length_b       9.5032
_cell_length_c       13.9208
_cell_angle_alpha    95.383
_cell_angle_beta     91.851
_cell_angle_gamma    107.7

_symmetry_space_group_name_H-M    "P 1"
_symmetry_int_tables_number       1

loop_
  _symmetry_equiv_pos_as_xyz
  'x, y, z'

loop_
  _atom_site_label
  _atom_site_occupancy
  _atom_site_fract_x
  _atom_site_fract_y
  _atom_site_fract_z
  _atom_site_thermal_displace_type
  _atom_site_B_iso_or_equiv
  _atom_site_type_symbol
  Sm1      1.0000 0.20047  0.44117  0.00079  Biso   1.000  Sm
  O1       1.0000 0.60580  0.35480  0.04550  Biso   1.000  O
  O2       1.0000 0.36890  0.29990  0.97816  Biso   1.000  O
  O3       1.0000 0.39090  0.53520  0.13746  Biso   1.000  O
  H1       1.0000 0.39600  0.47300  0.17470  Biso   1.000  H
  H2       1.0000 0.31400  0.49900  0.09700  Biso   1.000  H
  O4       1.0000 0.09290  0.63610  0.05021  Biso   1.000  O
  O5       1.0000 0.18440  0.43180  0.82860  Biso   1.000  O
  H3       1.0000 0.16700  0.41500  0.88680  Biso   1.000  H
  H4       1.0000 0.10700  0.38200  0.79190  Biso   1.000  H
  O6       1.0000 0.98090  0.81040  0.05260  Biso   1.000  O
  O7       1.0000 0.61320  0.94210  0.23400  Biso   1.000  O
  N1       1.0000 0.35790  0.64720  0.62370  Biso   1.000  N
  N2       1.0000 0.38450  0.59380  0.70630  Biso   1.000  N
  N3       1.0000 0.52790  0.59580  0.71340  Biso   1.000  N
  N4       1.0000 0.59960  0.65020  0.63570  Biso   1.000  N
  C1       1.0000 0.49220  0.68220  0.58200  Biso   1.000  C
  C2       1.0000 0.51820  0.74560  0.48990  Biso   1.000  C
  C3       1.0000 0.64280  0.73880  0.43770  Biso   1.000  C
  H5       1.0000 0.70940  0.69140  0.46120  Biso   1.000  H
  C4       1.0000 0.67010  0.80030  0.35180  Biso   1.000  C
  H6       1.0000 0.75250  0.79250  0.31670  Biso   1.000  H
  C5       1.0000 0.57270  0.87410  0.31860  Biso   1.000  C
  C6       1.0000 0.45050  0.88460  0.36880  Biso   1.000  C
  H7       1.0000 0.38580  0.93430  0.34560  Biso   1.000  H
  C7       1.0000 0.42310  0.82110  0.45470  Biso   1.000  C
  H8       1.0000 0.34010  0.82910  0.48920  Biso   1.000  H
  C8       1.0000 0.49860  0.96660  0.17630  Biso   1.000  C
  C9       1.0000 0.53470  0.09980  0.13770  Biso   1.000  C
  H9       1.0000 0.63030  0.17030  0.15260  Biso   1.000  H
  C10      1.0000 0.42710  0.12830  0.07600  Biso   1.000  C
  C11      1.0000 0.47060  0.27140  0.03040  Biso   1.000  C
  C12      1.0000 0.28380  0.02510  0.05510  Biso   1.000  C
  H10      1.0000 0.21010  0.04660  0.01660  Biso   1.000  H
  C13      1.0000 0.25090  0.88890  0.09230  Biso   1.000  C
  C14      1.0000 0.10030  0.77330  0.06420  Biso   1.000  C
  C15      1.0000 0.35890  0.85800  0.15230  Biso   1.000  C
  H11      1.0000 0.33770  0.76600  0.17590  Biso   1.000  H
  Sm2      1.0000 0.79953  0.55883  0.99921  Biso   1.000  Sm
  O8       1.0000 0.39420  0.64520  0.95450  Biso   1.000  O
  O9       1.0000 0.63110  0.70010  0.02184  Biso   1.000  O
  O10      1.0000 0.60910  0.46480  0.86254  Biso   1.000  O
  H12      1.0000 0.60400  0.52700  0.82530  Biso   1.000  H
  H13      1.0000 0.68600  0.50100  0.90300  Biso   1.000  H
  O11      1.0000 0.90710  0.36390  0.94979  Biso   1.000  O
  O12      1.0000 0.81560  0.56820  0.17140  Biso   1.000  O
  H14      1.0000 0.83300  0.58500  0.11320  Biso   1.000  H
  H15      1.0000 0.89300  0.61800  0.20810  Biso   1.000  H
  O13      1.0000 0.01910  0.18960  0.94740  Biso   1.000  O
  O14      1.0000 0.38680  0.05790  0.76600  Biso   1.000  O
  N5       1.0000 0.64210  0.35280  0.37630  Biso   1.000  N
  N6       1.0000 0.61550  0.40620  0.29370  Biso   1.000  N
  N7       1.0000 0.47210  0.40420  0.28660  Biso   1.000  N
  N8       1.0000 0.40040  0.34980  0.36430  Biso   1.000  N
  C16      1.0000 0.50780  0.31780  0.41800  Biso   1.000  C
  C17      1.0000 0.48180  0.25440  0.51010  Biso   1.000  C
  C18      1.0000 0.35720  0.26120  0.56230  Biso   1.000  C
  H16      1.0000 0.29060  0.30860  0.53880  Biso   1.000  H
  C19      1.0000 0.32990  0.19970  0.64820  Biso   1.000  C
  H17      1.0000 0.24750  0.20750  0.68330  Biso   1.000  H
  C20      1.0000 0.42730  0.12590  0.68140  Biso   1.000  C
  C21      1.0000 0.54950  0.11540  0.63120  Biso   1.000  C
  H18      1.0000 0.61420  0.06570  0.65440  Biso   1.000  H
  C22      1.0000 0.57690  0.17890  0.54530  Biso   1.000  C
  H19      1.0000 0.65990  0.17090  0.51080  Biso   1.000  H
  C23      1.0000 0.50140  0.03340  0.82370  Biso   1.000  C
  C24      1.0000 0.46530  0.90020  0.86230  Biso   1.000  C
  H20      1.0000 0.36970  0.82970  0.84740  Biso   1.000  H
  C25      1.0000 0.57290  0.87170  0.92400  Biso   1.000  C
  C26      1.0000 0.52940  0.72860  0.96960  Biso   1.000  C
  C27      1.0000 0.71620  0.97490  0.94490  Biso   1.000  C
  H21      1.0000 0.78990  0.95340  0.98340  Biso   1.000  H
  C28      1.0000 0.74910  0.11110  0.90770  Biso   1.000  C
  C29      1.0000 0.89970  0.22670  0.93580  Biso   1.000  C
  C30      1.0000 0.64110  0.14200  0.84770  Biso   1.000  C
  H22      1.0000 0.66230  0.23400  0.82410  Biso   1.000  H
