data_image0
_cell_length_a       10.9252
_cell_length_b       9.3337
_cell_length_c       14.2595
_cell_angle_alpha    90
_cell_angle_beta     98.0093
_cell_angle_gamma    90

_symmetry_space_group_name_H-M    "P 1"
_symmetry_int_tables_number       1

loop_
  _symmetry_equiv_pos_as_xyz
  'x, y, z'

loop_
  _atom_site_label
  _atom_site_occupancy
  _atom_site_fract_x
  _atom_site_fract_y
  _atom_site_fract_z
  _atom_site_thermal_displace_type
  _atom_site_B_iso_or_equiv
  _atom_site_type_symbol
  Zn1      1.0000 0.52024  0.23397  0.61963  Biso   1.000  Zn
  N1       1.0000 0.55250  0.38130  0.71940  Biso   1.000  N
  N2       1.0000 0.46480  0.05940  0.67920  Biso   1.000  N
  N3       1.0000 0.39380  0.28060  0.50850  Biso   1.000  N
  N4       1.0000 0.21870  0.32110  0.42160  Biso   1.000  N
  H1       1.0000 0.14260  0.34490  0.40580  Biso   1.000  H
  N5       1.0000 0.68150  0.21030  0.56930  Biso   1.000  N
  N6       1.0000 0.83690  0.25920  0.49500  Biso   1.000  N
  H2       1.0000 0.88150  0.30250  0.45870  Biso   1.000  H
  C1       1.0000 0.48250  0.48910  0.74510  Biso   1.000  C
  H3       1.0000 0.40490  0.51190  0.71300  Biso   1.000  H
  C2       1.0000 0.35250  0.99140  0.65440  Biso   1.000  C
  H4       1.0000 0.29330  0.01460  0.60330  Biso   1.000  H
  C3       1.0000 0.65570  0.38530  0.78250  Biso   1.000  C
  H5       1.0000 0.72290  0.32400  0.78280  Biso   1.000  H
  C4       1.0000 0.27960  0.32020  0.50800  Biso   1.000  C
  H6       1.0000 0.24530  0.34480  0.56190  Biso   1.000  H
  C5       1.0000 0.29710  0.27790  0.36250  Biso   1.000  C
  H7       1.0000 0.27910  0.26690  0.29720  Biso   1.000  H
  C6       1.0000 0.40630  0.25380  0.41570  Biso   1.000  C
  H8       1.0000 0.47830  0.22390  0.39360  Biso   1.000  H
  C7       1.0000 0.72450  0.29460  0.50910  Biso   1.000  C
  H9       1.0000 0.68060  0.37140  0.47950  Biso   1.000  H
  C8       1.0000 0.86910  0.14120  0.54840  Biso   1.000  C
  H10      1.0000 0.94250  0.08980  0.55140  Biso   1.000  H
  C9       1.0000 0.77410  0.11360  0.59600  Biso   1.000  C
  H11      1.0000 0.77160  0.04060  0.64010  Biso   1.000  H
  Zn2      1.0000 0.47976  0.73397  0.88037  Biso   1.000  Zn
  N7       1.0000 0.44750  0.88130  0.78060  Biso   1.000  N
  N8       1.0000 0.53520  0.55940  0.82080  Biso   1.000  N
  N9       1.0000 0.60620  0.78060  0.99150  Biso   1.000  N
  N10      1.0000 0.78130  0.82110  0.07840  Biso   1.000  N
  H12      1.0000 0.85740  0.84490  0.09420  Biso   1.000  H
  N11      1.0000 0.31850  0.71030  0.93070  Biso   1.000  N
  N12      1.0000 0.16310  0.75920  0.00500  Biso   1.000  N
  H13      1.0000 0.11850  0.80250  0.04130  Biso   1.000  H
  C10      1.0000 0.51750  0.98910  0.75490  Biso   1.000  C
  H14      1.0000 0.59510  0.01190  0.78700  Biso   1.000  H
  C11      1.0000 0.64750  0.49140  0.84560  Biso   1.000  C
  H15      1.0000 0.70670  0.51460  0.89670  Biso   1.000  H
  C12      1.0000 0.34430  0.88530  0.71750  Biso   1.000  C
  H16      1.0000 0.27710  0.82400  0.71720  Biso   1.000  H
  C13      1.0000 0.72040  0.82020  0.99200  Biso   1.000  C
  H17      1.0000 0.75470  0.84480  0.93810  Biso   1.000  H
  C14      1.0000 0.70290  0.77790  0.13750  Biso   1.000  C
  H18      1.0000 0.72090  0.76690  0.20280  Biso   1.000  H
  C15      1.0000 0.59370  0.75380  0.08430  Biso   1.000  C
  H19      1.0000 0.52170  0.72390  0.10640  Biso   1.000  H
  C16      1.0000 0.27550  0.79460  0.99090  Biso   1.000  C
  H20      1.0000 0.31940  0.87140  0.02050  Biso   1.000  H
  C17      1.0000 0.13090  0.64120  0.95160  Biso   1.000  C
  H21      1.0000 0.05750  0.58980  0.94860  Biso   1.000  H
  C18      1.0000 0.22590  0.61360  0.90400  Biso   1.000  C
  H22      1.0000 0.22840  0.54060  0.85990  Biso   1.000  H
  Zn3      1.0000 0.47976  0.76603  0.38037  Biso   1.000  Zn
  N13      1.0000 0.44750  0.61870  0.28060  Biso   1.000  N
  N14      1.0000 0.53520  0.94060  0.32080  Biso   1.000  N
  N15      1.0000 0.60620  0.71940  0.49150  Biso   1.000  N
  N16      1.0000 0.78130  0.67890  0.57840  Biso   1.000  N
  H23      1.0000 0.85740  0.65510  0.59420  Biso   1.000  H
  N17      1.0000 0.31850  0.78970  0.43070  Biso   1.000  N
  N18      1.0000 0.16310  0.74080  0.50500  Biso   1.000  N
  H24      1.0000 0.11850  0.69750  0.54130  Biso   1.000  H
  C19      1.0000 0.51750  0.51090  0.25490  Biso   1.000  C
  H25      1.0000 0.59510  0.48810  0.28700  Biso   1.000  H
  C20      1.0000 0.64750  0.00860  0.34560  Biso   1.000  C
  H26      1.0000 0.70670  0.98540  0.39670  Biso   1.000  H
  C21      1.0000 0.34430  0.61470  0.21750  Biso   1.000  C
  H27      1.0000 0.27710  0.67600  0.21720  Biso   1.000  H
  C22      1.0000 0.72040  0.67980  0.49200  Biso   1.000  C
  H28      1.0000 0.75470  0.65520  0.43810  Biso   1.000  H
  C23      1.0000 0.70290  0.72210  0.63750  Biso   1.000  C
  H29      1.0000 0.72090  0.73310  0.70280  Biso   1.000  H
  C24      1.0000 0.59370  0.74620  0.58430  Biso   1.000  C
  H30      1.0000 0.52170  0.77610  0.60640  Biso   1.000  H
  C25      1.0000 0.27550  0.70540  0.49090  Biso   1.000  C
  H31      1.0000 0.31940  0.62860  0.52050  Biso   1.000  H
  C26      1.0000 0.13090  0.85880  0.45160  Biso   1.000  C
  H32      1.0000 0.05750  0.91020  0.44860  Biso   1.000  H
  C27      1.0000 0.22590  0.88640  0.40400  Biso   1.000  C
  H33      1.0000 0.22840  0.95940  0.35990  Biso   1.000  H
  Zn4      1.0000 0.52024  0.26603  0.11963  Biso   1.000  Zn
  N19      1.0000 0.55250  0.11870  0.21940  Biso   1.000  N
  N20      1.0000 0.46480  0.44060  0.17920  Biso   1.000  N
  N21      1.0000 0.39380  0.21940  0.00850  Biso   1.000  N
  N22      1.0000 0.21870  0.17890  0.92160  Biso   1.000  N
  H34      1.0000 0.14260  0.15510  0.90580  Biso   1.000  H
  N23      1.0000 0.68150  0.28970  0.06930  Biso   1.000  N
  N24      1.0000 0.83690  0.24080  0.99500  Biso   1.000  N
  H35      1.0000 0.88150  0.19750  0.95870  Biso   1.000  H
  C28      1.0000 0.48250  0.01090  0.24510  Biso   1.000  C
  H36      1.0000 0.40490  0.98810  0.21300  Biso   1.000  H
  C29      1.0000 0.35250  0.50860  0.15440  Biso   1.000  C
  H37      1.0000 0.29330  0.48540  0.10330  Biso   1.000  H
  C30      1.0000 0.65570  0.11470  0.28250  Biso   1.000  C
  H38      1.0000 0.72290  0.17600  0.28280  Biso   1.000  H
  C31      1.0000 0.27960  0.17980  0.00800  Biso   1.000  C
  H39      1.0000 0.24530  0.15520  0.06190  Biso   1.000  H
  C32      1.0000 0.29710  0.22210  0.86250  Biso   1.000  C
  H40      1.0000 0.27910  0.23310  0.79720  Biso   1.000  H
  C33      1.0000 0.40630  0.24620  0.91570  Biso   1.000  C
  H41      1.0000 0.47830  0.27610  0.89360  Biso   1.000  H
  C34      1.0000 0.72450  0.20540  0.00910  Biso   1.000  C
  H42      1.0000 0.68060  0.12860  0.97950  Biso   1.000  H
  C35      1.0000 0.86910  0.35880  0.04840  Biso   1.000  C
  H43      1.0000 0.94250  0.41020  0.05140  Biso   1.000  H
  C36      1.0000 0.77410  0.38640  0.09600  Biso   1.000  C
  H44      1.0000 0.77160  0.45940  0.14010  Biso   1.000  H
