data_image0
_cell_length_a       13.135
_cell_length_b       13.135
_cell_length_c       5.8794
_cell_angle_alpha    90
_cell_angle_beta     90
_cell_angle_gamma    120

_symmetry_space_group_name_H-M    "P 1"
_symmetry_int_tables_number       1

loop_
  _symmetry_equiv_pos_as_xyz
  'x, y, z'

loop_
  _atom_site_label
  _atom_site_occupancy
  _atom_site_fract_x
  _atom_site_fract_y
  _atom_site_fract_z
  _atom_site_thermal_displace_type
  _atom_site_B_iso_or_equiv
  _atom_site_type_symbol
  C1       1.0000 0.91440  0.76390  0.84770  Biso   1.000  C
  C2       1.0000 0.89930  0.65800  0.77030  Biso   1.000  C
  C3       1.0000 0.96110  0.65870  0.57700  Biso   1.000  C
  H1       1.0000 0.95330  0.58880  0.52170  Biso   1.000  H
  C4       1.0000 0.03360  0.76330  0.46800  Biso   1.000  C
  H2       1.0000 0.07300  0.76450  0.33570  Biso   1.000  H
  C5       1.0000 0.04700  0.86730  0.55960  Biso   1.000  C
  H3       1.0000 0.09870  0.93840  0.49030  Biso   1.000  H
  C6       1.0000 0.85090  0.77690  0.05710  Biso   1.000  C
  C7       1.0000 0.81920  0.54470  0.89020  Biso   1.000  C
  N1       1.0000 0.98840  0.86800  0.74210  Biso   1.000  N
  O1       1.0000 0.88090  0.88560  0.09420  Biso   1.000  O
  O2       1.0000 0.78110  0.69240  0.16260  Biso   1.000  O
  O3       1.0000 0.71320  0.48070  0.82320  Biso   1.000  O
  O4       1.0000 0.86020  0.51160  0.05180  Biso   1.000  O
  C8       1.0000 0.23610  0.15050  0.84770  Biso   1.000  C
  C9       1.0000 0.34200  0.24130  0.77030  Biso   1.000  C
  C10      1.0000 0.34130  0.30240  0.57700  Biso   1.000  C
  H4       1.0000 0.41120  0.36450  0.52170  Biso   1.000  H
  C11      1.0000 0.23670  0.27030  0.46800  Biso   1.000  C
  H5       1.0000 0.23550  0.30850  0.33570  Biso   1.000  H
  C12      1.0000 0.13270  0.17970  0.55960  Biso   1.000  C
  H6       1.0000 0.06160  0.16030  0.49030  Biso   1.000  H
  C13      1.0000 0.22310  0.07400  0.05710  Biso   1.000  C
  C14      1.0000 0.45530  0.27450  0.89020  Biso   1.000  C
  N2       1.0000 0.13200  0.12040  0.74210  Biso   1.000  N
  O5       1.0000 0.11440  0.99530  0.09420  Biso   1.000  O
  O6       1.0000 0.30760  0.08870  0.16260  Biso   1.000  O
  O7       1.0000 0.51930  0.23250  0.82320  Biso   1.000  O
  O8       1.0000 0.48840  0.34860  0.05180  Biso   1.000  O
  C15      1.0000 0.84950  0.08560  0.84770  Biso   1.000  C
  C16      1.0000 0.75870  0.10070  0.77030  Biso   1.000  C
  C17      1.0000 0.69760  0.03890  0.57700  Biso   1.000  C
  H7       1.0000 0.63550  0.04670  0.52170  Biso   1.000  H
  C18      1.0000 0.72970  0.96640  0.46800  Biso   1.000  C
  H8       1.0000 0.69150  0.92700  0.33570  Biso   1.000  H
  C19      1.0000 0.82030  0.95300  0.55960  Biso   1.000  C
  H9       1.0000 0.83970  0.90130  0.49030  Biso   1.000  H
  C20      1.0000 0.92600  0.14910  0.05710  Biso   1.000  C
  C21      1.0000 0.72550  0.18080  0.89020  Biso   1.000  C
  N3       1.0000 0.87960  0.01160  0.74210  Biso   1.000  N
  O9       1.0000 0.00470  0.11910  0.09420  Biso   1.000  O
  O10      1.0000 0.91130  0.21890  0.16260  Biso   1.000  O
  O11      1.0000 0.76750  0.28680  0.82320  Biso   1.000  O
  O12      1.0000 0.65140  0.13980  0.05180  Biso   1.000  O
  Dy1      1.0000 0.66667  0.33333  0.10940  Biso   1.000  Dy
  Co1      1.0000 0.00000  0.00000  0.90702  Biso   1.000  Co
