data_image0
_cell_length_a       21.0769
_cell_length_b       15.668
_cell_length_c       9.2192
_cell_angle_alpha    90
_cell_angle_beta     103.261
_cell_angle_gamma    90

_symmetry_space_group_name_H-M    "P 1"
_symmetry_int_tables_number       1

loop_
  _symmetry_equiv_pos_as_xyz
  'x, y, z'

loop_
  _atom_site_label
  _atom_site_occupancy
  _atom_site_fract_x
  _atom_site_fract_y
  _atom_site_fract_z
  _atom_site_thermal_displace_type
  _atom_site_B_iso_or_equiv
  _atom_site_type_symbol
  Mg1      1.0000 0.81392  0.92470  0.26186  Biso   1.000  Mg
  O1       1.0000 0.90601  0.89990  0.40180  Biso   1.000  O
  O2       1.0000 0.76692  0.91475  0.43350  Biso   1.000  O
  O3       1.0000 0.79350  0.79554  0.25950  Biso   1.000  O
  O4       1.0000 0.87291  0.91448  0.11290  Biso   1.000  O
  C1       1.0000 0.95333  0.90310  0.33870  Biso   1.000  C
  C2       1.0000 0.73280  0.81690  0.59540  Biso   1.000  C
  H1       1.0000 0.72100  0.86030  0.65620  Biso   1.000  H
  C3       1.0000 0.75681  0.83790  0.47220  Biso   1.000  C
  C4       1.0000 0.77371  0.76900  0.37170  Biso   1.000  C
  C5       1.0000 0.93375  0.90760  0.16810  Biso   1.000  C
  C6       1.0000 0.01832  0.90440  0.41210  Biso   1.000  C
  H2       1.0000 0.03010  0.90310  0.51790  Biso   1.000  H
  Mg2      1.0000 0.18608  0.92470  0.23814  Biso   1.000  Mg
  O5       1.0000 0.09399  0.89990  0.09820  Biso   1.000  O
  O6       1.0000 0.23308  0.91475  0.06650  Biso   1.000  O
  O7       1.0000 0.20650  0.79554  0.24050  Biso   1.000  O
  O8       1.0000 0.12709  0.91448  0.38710  Biso   1.000  O
  C7       1.0000 0.04667  0.90310  0.16130  Biso   1.000  C
  C8       1.0000 0.26720  0.81690  0.90460  Biso   1.000  C
  H3       1.0000 0.27900  0.86030  0.84380  Biso   1.000  H
  C9       1.0000 0.24319  0.83790  0.02780  Biso   1.000  C
  C10      1.0000 0.22629  0.76900  0.12830  Biso   1.000  C
  C11      1.0000 0.06625  0.90760  0.33190  Biso   1.000  C
  C12      1.0000 0.98168  0.90440  0.08790  Biso   1.000  C
  H4       1.0000 0.96990  0.90310  0.98210  Biso   1.000  H
  Mg3      1.0000 0.68608  0.57530  0.73814  Biso   1.000  Mg
  O9       1.0000 0.59399  0.60010  0.59820  Biso   1.000  O
  O10      1.0000 0.73308  0.58525  0.56650  Biso   1.000  O
  O11      1.0000 0.70650  0.70446  0.74050  Biso   1.000  O
  O12      1.0000 0.62709  0.58552  0.88710  Biso   1.000  O
  C13      1.0000 0.54667  0.59690  0.66130  Biso   1.000  C
  C14      1.0000 0.76720  0.68310  0.40460  Biso   1.000  C
  H5       1.0000 0.77900  0.63970  0.34380  Biso   1.000  H
  C15      1.0000 0.74319  0.66210  0.52780  Biso   1.000  C
  C16      1.0000 0.72629  0.73100  0.62830  Biso   1.000  C
  C17      1.0000 0.56625  0.59240  0.83190  Biso   1.000  C
  C18      1.0000 0.48168  0.59560  0.58790  Biso   1.000  C
  H6       1.0000 0.46990  0.59690  0.48210  Biso   1.000  H
  Mg4      1.0000 0.31392  0.57530  0.76186  Biso   1.000  Mg
  O13      1.0000 0.40601  0.60010  0.90180  Biso   1.000  O
  O14      1.0000 0.26692  0.58525  0.93350  Biso   1.000  O
  O15      1.0000 0.29350  0.70446  0.75950  Biso   1.000  O
  O16      1.0000 0.37291  0.58552  0.61290  Biso   1.000  O
  C19      1.0000 0.45333  0.59690  0.83870  Biso   1.000  C
  C20      1.0000 0.23280  0.68310  0.09540  Biso   1.000  C
  H7       1.0000 0.22100  0.63970  0.15620  Biso   1.000  H
  C21      1.0000 0.25681  0.66210  0.97220  Biso   1.000  C
  C22      1.0000 0.27371  0.73100  0.87170  Biso   1.000  C
  C23      1.0000 0.43375  0.59240  0.66810  Biso   1.000  C
  C24      1.0000 0.51832  0.59560  0.91210  Biso   1.000  C
  H8       1.0000 0.53010  0.59690  0.01790  Biso   1.000  H
  Mg5      1.0000 0.31392  0.42470  0.26186  Biso   1.000  Mg
  O17      1.0000 0.40601  0.39990  0.40180  Biso   1.000  O
  O18      1.0000 0.26692  0.41475  0.43350  Biso   1.000  O
  O19      1.0000 0.29350  0.29554  0.25950  Biso   1.000  O
  O20      1.0000 0.37291  0.41448  0.11290  Biso   1.000  O
  C25      1.0000 0.45333  0.40310  0.33870  Biso   1.000  C
  C26      1.0000 0.23280  0.31690  0.59540  Biso   1.000  C
  H9       1.0000 0.22100  0.36030  0.65620  Biso   1.000  H
  C27      1.0000 0.25681  0.33790  0.47220  Biso   1.000  C
  C28      1.0000 0.27371  0.26900  0.37170  Biso   1.000  C
  C29      1.0000 0.43375  0.40760  0.16810  Biso   1.000  C
  C30      1.0000 0.51832  0.40440  0.41210  Biso   1.000  C
  H10      1.0000 0.53010  0.40310  0.51790  Biso   1.000  H
  Mg6      1.0000 0.68608  0.42470  0.23814  Biso   1.000  Mg
  O21      1.0000 0.59399  0.39990  0.09820  Biso   1.000  O
  O22      1.0000 0.73308  0.41475  0.06650  Biso   1.000  O
  O23      1.0000 0.70650  0.29554  0.24050  Biso   1.000  O
  O24      1.0000 0.62709  0.41448  0.38710  Biso   1.000  O
  C31      1.0000 0.54667  0.40310  0.16130  Biso   1.000  C
  C32      1.0000 0.76720  0.31690  0.90460  Biso   1.000  C
  H11      1.0000 0.77900  0.36030  0.84380  Biso   1.000  H
  C33      1.0000 0.74319  0.33790  0.02780  Biso   1.000  C
  C34      1.0000 0.72629  0.26900  0.12830  Biso   1.000  C
  C35      1.0000 0.56625  0.40760  0.33190  Biso   1.000  C
  C36      1.0000 0.48168  0.40440  0.08790  Biso   1.000  C
  H12      1.0000 0.46990  0.40310  0.98210  Biso   1.000  H
  Mg7      1.0000 0.18608  0.07530  0.73814  Biso   1.000  Mg
  O25      1.0000 0.09399  0.10010  0.59820  Biso   1.000  O
  O26      1.0000 0.23308  0.08525  0.56650  Biso   1.000  O
  O27      1.0000 0.20650  0.20446  0.74050  Biso   1.000  O
  O28      1.0000 0.12709  0.08552  0.88710  Biso   1.000  O
  C37      1.0000 0.04667  0.09690  0.66130  Biso   1.000  C
  C38      1.0000 0.26720  0.18310  0.40460  Biso   1.000  C
  H13      1.0000 0.27900  0.13970  0.34380  Biso   1.000  H
  C39      1.0000 0.24319  0.16210  0.52780  Biso   1.000  C
  C40      1.0000 0.22629  0.23100  0.62830  Biso   1.000  C
  C41      1.0000 0.06625  0.09240  0.83190  Biso   1.000  C
  C42      1.0000 0.98168  0.09560  0.58790  Biso   1.000  C
  H14      1.0000 0.96990  0.09690  0.48210  Biso   1.000  H
  Mg8      1.0000 0.81392  0.07530  0.76186  Biso   1.000  Mg
  O29      1.0000 0.90601  0.10010  0.90180  Biso   1.000  O
  O30      1.0000 0.76692  0.08525  0.93350  Biso   1.000  O
  O31      1.0000 0.79350  0.20446  0.75950  Biso   1.000  O
  O32      1.0000 0.87291  0.08552  0.61290  Biso   1.000  O
  C43      1.0000 0.95333  0.09690  0.83870  Biso   1.000  C
  C44      1.0000 0.73280  0.18310  0.09540  Biso   1.000  C
  H15      1.0000 0.72100  0.13970  0.15620  Biso   1.000  H
  C45      1.0000 0.75681  0.16210  0.97220  Biso   1.000  C
  C46      1.0000 0.77371  0.23100  0.87170  Biso   1.000  C
  C47      1.0000 0.93375  0.09240  0.66810  Biso   1.000  C
  C48      1.0000 0.01832  0.09560  0.91210  Biso   1.000  C
  H16      1.0000 0.03010  0.09690  0.01790  Biso   1.000  H
