data_image0
_cell_length_a       15.1755
_cell_length_b       22.2665
_cell_length_c       8.1466
_cell_angle_alpha    90
_cell_angle_beta     110.282
_cell_angle_gamma    90

_symmetry_space_group_name_H-M    "P 1"
_symmetry_int_tables_number       1

loop_
  _symmetry_equiv_pos_as_xyz
  'x, y, z'

loop_
  _atom_site_label
  _atom_site_occupancy
  _atom_site_fract_x
  _atom_site_fract_y
  _atom_site_fract_z
  _atom_site_thermal_displace_type
  _atom_site_B_iso_or_equiv
  _atom_site_type_symbol
  Zn1      1.0000 0.24656  0.13475  0.70760  Biso   1.000  Zn
  C1       1.0000 0.42370  0.06490  0.70970  Biso   1.000  C
  H1       1.0000 0.45140  0.10240  0.71290  Biso   1.000  H
  C2       1.0000 0.47070  0.01650  0.70620  Biso   1.000  C
  H2       1.0000 0.53280  0.02010  0.71220  Biso   1.000  H
  C3       1.0000 0.43180  0.95960  0.69410  Biso   1.000  C
  H3       1.0000 0.46470  0.92570  0.68190  Biso   1.000  H
  C4       1.0000 0.33760  0.95510  0.70110  Biso   1.000  C
  H4       1.0000 0.30760  0.91870  0.70090  Biso   1.000  H
  C5       1.0000 0.29770  0.00860  0.70790  Biso   1.000  C
  C6       1.0000 0.19990  0.00640  0.70950  Biso   1.000  C
  C7       1.0000 0.14430  0.95590  0.71190  Biso   1.000  C
  H5       1.0000 0.17020  0.91810  0.71210  Biso   1.000  H
  C8       1.0000 0.05910  0.95880  0.71370  Biso   1.000  C
  H6       1.0000 0.02520  0.92380  0.71080  Biso   1.000  H
  C9       1.0000 0.01940  0.01340  0.72000  Biso   1.000  C
  H7       1.0000 0.95980  0.01720  0.72710  Biso   1.000  H
  C10      1.0000 0.07640  0.06510  0.71470  Biso   1.000  C
  H8       1.0000 0.05130  0.10300  0.71750  Biso   1.000  H
  C11      1.0000 0.34320  0.18760  0.98060  Biso   1.000  C
  C12      1.0000 0.40060  0.21200  0.16010  Biso   1.000  C
  C13      1.0000 0.37060  0.20730  0.30260  Biso   1.000  C
  H9       1.0000 0.31330  0.18930  0.28930  Biso   1.000  H
  C14      1.0000 0.42640  0.22940  0.46490  Biso   1.000  C
  H10      1.0000 0.40630  0.22620  0.56020  Biso   1.000  H
  C15      1.0000 0.51210  0.25630  0.48470  Biso   1.000  C
  C16      1.0000 0.54210  0.26110  0.34220  Biso   1.000  C
  H11      1.0000 0.59940  0.27910  0.35550  Biso   1.000  H
  C17      1.0000 0.48630  0.23890  0.17990  Biso   1.000  C
  H12      1.0000 0.50640  0.24210  0.08460  Biso   1.000  H
  C18      1.0000 0.58610  0.28450  0.64550  Biso   1.000  C
  H13      1.0000 0.63850  0.30330  0.63470  Biso   1.000  H
  C19      1.0000 0.57610  0.28220  0.78650  Biso   1.000  C
  H14      1.0000 0.52430  0.26270  0.79760  Biso   1.000  H
  C20      1.0000 0.64800  0.31120  0.94500  Biso   1.000  C
  N1       1.0000 0.33190  0.06090  0.70860  Biso   1.000  N
  N2       1.0000 0.15770  0.06210  0.70670  Biso   1.000  N
  O1       1.0000 0.26880  0.16060  0.96420  Biso   1.000  O
  O2       1.0000 0.36760  0.19300  0.85140  Biso   1.000  O
  O3       1.0000 0.72090  0.33730  0.94840  Biso   1.000  O
  O4       1.0000 0.62420  0.30840  0.07670  Biso   1.000  O
  Zn2      1.0000 0.74656  0.36525  0.20760  Biso   1.000  Zn
  C21      1.0000 0.92370  0.43510  0.20970  Biso   1.000  C
  H15      1.0000 0.95140  0.39760  0.21290  Biso   1.000  H
  C22      1.0000 0.97070  0.48350  0.20620  Biso   1.000  C
  H16      1.0000 0.03280  0.47990  0.21220  Biso   1.000  H
  C23      1.0000 0.93180  0.54040  0.19410  Biso   1.000  C
  H17      1.0000 0.96470  0.57430  0.18190  Biso   1.000  H
  C24      1.0000 0.83760  0.54490  0.20110  Biso   1.000  C
  H18      1.0000 0.80760  0.58130  0.20090  Biso   1.000  H
  C25      1.0000 0.79770  0.49140  0.20790  Biso   1.000  C
  C26      1.0000 0.69990  0.49360  0.20950  Biso   1.000  C
  C27      1.0000 0.64430  0.54410  0.21190  Biso   1.000  C
  H19      1.0000 0.67020  0.58190  0.21210  Biso   1.000  H
  C28      1.0000 0.55910  0.54120  0.21370  Biso   1.000  C
  H20      1.0000 0.52520  0.57620  0.21080  Biso   1.000  H
  C29      1.0000 0.51940  0.48660  0.22000  Biso   1.000  C
  H21      1.0000 0.45980  0.48280  0.22710  Biso   1.000  H
  C30      1.0000 0.57640  0.43490  0.21470  Biso   1.000  C
  H22      1.0000 0.55130  0.39700  0.21750  Biso   1.000  H
  C31      1.0000 0.84320  0.31240  0.48060  Biso   1.000  C
  C32      1.0000 0.90060  0.28800  0.66010  Biso   1.000  C
  C33      1.0000 0.87060  0.29270  0.80260  Biso   1.000  C
  H23      1.0000 0.81330  0.31070  0.78930  Biso   1.000  H
  C34      1.0000 0.92640  0.27060  0.96490  Biso   1.000  C
  H24      1.0000 0.90630  0.27380  0.06020  Biso   1.000  H
  C35      1.0000 0.01210  0.24370  0.98470  Biso   1.000  C
  C36      1.0000 0.04210  0.23890  0.84220  Biso   1.000  C
  H25      1.0000 0.09940  0.22090  0.85550  Biso   1.000  H
  C37      1.0000 0.98630  0.26110  0.67990  Biso   1.000  C
  H26      1.0000 0.00640  0.25790  0.58460  Biso   1.000  H
  C38      1.0000 0.08610  0.21550  0.14550  Biso   1.000  C
  H27      1.0000 0.13850  0.19670  0.13470  Biso   1.000  H
  C39      1.0000 0.07610  0.21780  0.28650  Biso   1.000  C
  H28      1.0000 0.02430  0.23730  0.29760  Biso   1.000  H
  C40      1.0000 0.14800  0.18880  0.44500  Biso   1.000  C
  N3       1.0000 0.83190  0.43910  0.20860  Biso   1.000  N
  N4       1.0000 0.65770  0.43790  0.20670  Biso   1.000  N
  O5       1.0000 0.76880  0.33940  0.46420  Biso   1.000  O
  O6       1.0000 0.86760  0.30700  0.35140  Biso   1.000  O
  O7       1.0000 0.22090  0.16270  0.44840  Biso   1.000  O
  O8       1.0000 0.12420  0.19160  0.57670  Biso   1.000  O
  Zn3      1.0000 0.74656  0.63475  0.70760  Biso   1.000  Zn
  C41      1.0000 0.92370  0.56490  0.70970  Biso   1.000  C
  H29      1.0000 0.95140  0.60240  0.71290  Biso   1.000  H
  C42      1.0000 0.97070  0.51650  0.70620  Biso   1.000  C
  H30      1.0000 0.03280  0.52010  0.71220  Biso   1.000  H
  C43      1.0000 0.93180  0.45960  0.69410  Biso   1.000  C
  H31      1.0000 0.96470  0.42570  0.68190  Biso   1.000  H
  C44      1.0000 0.83760  0.45510  0.70110  Biso   1.000  C
  H32      1.0000 0.80760  0.41870  0.70090  Biso   1.000  H
  C45      1.0000 0.79770  0.50860  0.70790  Biso   1.000  C
  C46      1.0000 0.69990  0.50640  0.70950  Biso   1.000  C
  C47      1.0000 0.64430  0.45590  0.71190  Biso   1.000  C
  H33      1.0000 0.67020  0.41810  0.71210  Biso   1.000  H
  C48      1.0000 0.55910  0.45880  0.71370  Biso   1.000  C
  H34      1.0000 0.52520  0.42380  0.71080  Biso   1.000  H
  C49      1.0000 0.51940  0.51340  0.72000  Biso   1.000  C
  H35      1.0000 0.45980  0.51720  0.72710  Biso   1.000  H
  C50      1.0000 0.57640  0.56510  0.71470  Biso   1.000  C
  H36      1.0000 0.55130  0.60300  0.71750  Biso   1.000  H
  C51      1.0000 0.84320  0.68760  0.98060  Biso   1.000  C
  C52      1.0000 0.90060  0.71200  0.16010  Biso   1.000  C
  C53      1.0000 0.87060  0.70730  0.30260  Biso   1.000  C
  H37      1.0000 0.81330  0.68930  0.28930  Biso   1.000  H
  C54      1.0000 0.92640  0.72940  0.46490  Biso   1.000  C
  H38      1.0000 0.90630  0.72620  0.56020  Biso   1.000  H
  C55      1.0000 0.01210  0.75630  0.48470  Biso   1.000  C
  C56      1.0000 0.04210  0.76110  0.34220  Biso   1.000  C
  H39      1.0000 0.09940  0.77910  0.35550  Biso   1.000  H
  C57      1.0000 0.98630  0.73890  0.17990  Biso   1.000  C
  H40      1.0000 0.00640  0.74210  0.08460  Biso   1.000  H
  C58      1.0000 0.08610  0.78450  0.64550  Biso   1.000  C
  H41      1.0000 0.13850  0.80330  0.63470  Biso   1.000  H
  C59      1.0000 0.07610  0.78220  0.78650  Biso   1.000  C
  H42      1.0000 0.02430  0.76270  0.79760  Biso   1.000  H
  C60      1.0000 0.14800  0.81120  0.94500  Biso   1.000  C
  N5       1.0000 0.83190  0.56090  0.70860  Biso   1.000  N
  N6       1.0000 0.65770  0.56210  0.70670  Biso   1.000  N
  O9       1.0000 0.76880  0.66060  0.96420  Biso   1.000  O
  O10      1.0000 0.86760  0.69300  0.85140  Biso   1.000  O
  O11      1.0000 0.22090  0.83730  0.94840  Biso   1.000  O
  O12      1.0000 0.12420  0.80840  0.07670  Biso   1.000  O
  Zn4      1.0000 0.24656  0.86525  0.20760  Biso   1.000  Zn
  C61      1.0000 0.42370  0.93510  0.20970  Biso   1.000  C
  H43      1.0000 0.45140  0.89760  0.21290  Biso   1.000  H
  C62      1.0000 0.47070  0.98350  0.20620  Biso   1.000  C
  H44      1.0000 0.53280  0.97990  0.21220  Biso   1.000  H
  C63      1.0000 0.43180  0.04040  0.19410  Biso   1.000  C
  H45      1.0000 0.46470  0.07430  0.18190  Biso   1.000  H
  C64      1.0000 0.33760  0.04490  0.20110  Biso   1.000  C
  H46      1.0000 0.30760  0.08130  0.20090  Biso   1.000  H
  C65      1.0000 0.29770  0.99140  0.20790  Biso   1.000  C
  C66      1.0000 0.19990  0.99360  0.20950  Biso   1.000  C
  C67      1.0000 0.14430  0.04410  0.21190  Biso   1.000  C
  H47      1.0000 0.17020  0.08190  0.21210  Biso   1.000  H
  C68      1.0000 0.05910  0.04120  0.21370  Biso   1.000  C
  H48      1.0000 0.02520  0.07620  0.21080  Biso   1.000  H
  C69      1.0000 0.01940  0.98660  0.22000  Biso   1.000  C
  H49      1.0000 0.95980  0.98280  0.22710  Biso   1.000  H
  C70      1.0000 0.07640  0.93490  0.21470  Biso   1.000  C
  H50      1.0000 0.05130  0.89700  0.21750  Biso   1.000  H
  C71      1.0000 0.34320  0.81240  0.48060  Biso   1.000  C
  C72      1.0000 0.40060  0.78800  0.66010  Biso   1.000  C
  C73      1.0000 0.37060  0.79270  0.80260  Biso   1.000  C
  H51      1.0000 0.31330  0.81070  0.78930  Biso   1.000  H
  C74      1.0000 0.42640  0.77060  0.96490  Biso   1.000  C
  H52      1.0000 0.40630  0.77380  0.06020  Biso   1.000  H
  C75      1.0000 0.51210  0.74370  0.98470  Biso   1.000  C
  C76      1.0000 0.54210  0.73890  0.84220  Biso   1.000  C
  H53      1.0000 0.59940  0.72090  0.85550  Biso   1.000  H
  C77      1.0000 0.48630  0.76110  0.67990  Biso   1.000  C
  H54      1.0000 0.50640  0.75790  0.58460  Biso   1.000  H
  C78      1.0000 0.58610  0.71550  0.14550  Biso   1.000  C
  H55      1.0000 0.63850  0.69670  0.13470  Biso   1.000  H
  C79      1.0000 0.57610  0.71780  0.28650  Biso   1.000  C
  H56      1.0000 0.52430  0.73730  0.29760  Biso   1.000  H
  C80      1.0000 0.64800  0.68880  0.44500  Biso   1.000  C
  N7       1.0000 0.33190  0.93910  0.20860  Biso   1.000  N
  N8       1.0000 0.15770  0.93790  0.20670  Biso   1.000  N
  O13      1.0000 0.26880  0.83940  0.46420  Biso   1.000  O
  O14      1.0000 0.36760  0.80700  0.35140  Biso   1.000  O
  O15      1.0000 0.72090  0.66270  0.44840  Biso   1.000  O
  O16      1.0000 0.62420  0.69160  0.57670  Biso   1.000  O
