data_image0
_cell_length_a       8.245
_cell_length_b       11.6571
_cell_length_c       15.3212
_cell_angle_alpha    100.778
_cell_angle_beta     99.668
_cell_angle_gamma    91.324

_symmetry_space_group_name_H-M    "P 1"
_symmetry_int_tables_number       1

loop_
  _symmetry_equiv_pos_as_xyz
  'x, y, z'

loop_
  _atom_site_label
  _atom_site_occupancy
  _atom_site_fract_x
  _atom_site_fract_y
  _atom_site_fract_z
  _atom_site_thermal_displace_type
  _atom_site_B_iso_or_equiv
  _atom_site_type_symbol
  Ca1      1.0000 0.25306  0.44736  0.46586  Biso   1.000  Ca
  O1       1.0000 0.24990  0.65200  0.50400  Biso   1.000  O
  O2       1.0000 0.99360  0.65310  0.53400  Biso   1.000  O
  O3       1.0000 0.51040  0.47840  0.58805  Biso   1.000  O
  O4       1.0000 0.26800  0.47210  0.63230  Biso   1.000  O
  N1       1.0000 0.02090  0.89390  0.58950  Biso   1.000  N
  N2       1.0000 0.91800  0.96990  0.70640  Biso   1.000  N
  N3       1.0000 0.40620  0.55360  0.81100  Biso   1.000  N
  N4       1.0000 0.23330  0.60960  0.89940  Biso   1.000  N
  C1       1.0000 0.12370  0.70250  0.52490  Biso   1.000  C
  C2       1.0000 0.13660  0.83430  0.53590  Biso   1.000  C
  H1       1.0000 0.24800  0.86250  0.56450  Biso   1.000  H
  H2       1.0000 0.11680  0.85470  0.47660  Biso   1.000  H
  C3       1.0000 0.86260  0.92020  0.55830  Biso   1.000  C
  H3       1.0000 0.80950  0.90690  0.49850  Biso   1.000  H
  C4       1.0000 0.79870  0.96930  0.63180  Biso   1.000  C
  H4       1.0000 0.69400  0.99730  0.63170  Biso   1.000  H
  C5       1.0000 0.05080  0.92400  0.67900  Biso   1.000  C
  H5       1.0000 0.14880  0.91440  0.71630  Biso   1.000  H
  C6       1.0000 0.90260  0.01690  0.80130  Biso   1.000  C
  H6       1.0000 0.79240  0.99700  0.81030  Biso   1.000  H
  H7       1.0000 0.91760  0.10150  0.81300  Biso   1.000  H
  C7       1.0000 0.02760  0.96910  0.86810  Biso   1.000  C
  C8       1.0000 0.15440  0.04330  0.92400  Biso   1.000  C
  C9       1.0000 0.26370  0.99640  0.98670  Biso   1.000  C
  H8       1.0000 0.34690  0.04570  0.02500  Biso   1.000  H
  C10      1.0000 0.25360  0.88050  0.99420  Biso   1.000  C
  C11      1.0000 0.12560  0.80690  0.93730  Biso   1.000  C
  C12      1.0000 0.01230  0.85060  0.87470  Biso   1.000  C
  C13      1.0000 0.37790  0.83510  0.06230  Biso   1.000  C
  C14      1.0000 0.17760  0.17010  0.91890  Biso   1.000  C
  H9       1.0000 0.27100  0.20520  0.96280  Biso   1.000  H
  H10      1.0000 0.19580  0.17610  0.85960  Biso   1.000  H
  H11      1.0000 0.08070  0.20980  0.93110  Biso   1.000  H
  C15      1.0000 0.87430  0.77140  0.81520  Biso   1.000  C
  H12      1.0000 0.80230  0.81640  0.78050  Biso   1.000  H
  H13      1.0000 0.81340  0.73530  0.85200  Biso   1.000  H
  H14      1.0000 0.91930  0.71210  0.77520  Biso   1.000  H
  C16      1.0000 0.11350  0.68050  0.94650  Biso   1.000  C
  H15      1.0000 0.13480  0.67610  0.01000  Biso   1.000  H
  H16      1.0000 0.00250  0.64790  0.92130  Biso   1.000  H
  C17      1.0000 0.31180  0.63960  0.83740  Biso   1.000  C
  H17      1.0000 0.30230  0.70920  0.81600  Biso   1.000  H
  C18      1.0000 0.27800  0.50100  0.91200  Biso   1.000  C
  H18      1.0000 0.24110  0.45930  0.95170  Biso   1.000  H
  C19      1.0000 0.38520  0.46520  0.85660  Biso   1.000  C
  H19      1.0000 0.43540  0.39410  0.85040  Biso   1.000  H
  C20      1.0000 0.50810  0.55190  0.74130  Biso   1.000  C
  H20      1.0000 0.60570  0.50990  0.75660  Biso   1.000  H
  H21      1.0000 0.54380  0.63160  0.74070  Biso   1.000  H
  C21      1.0000 0.41920  0.49520  0.64740  Biso   1.000  C
  H22      1.0000 0.43200  0.77500  0.03100  Biso   1.000  H
  H23      1.0000 0.32600  0.79400  0.10300  Biso   1.000  H
  H24      1.0000 0.43700  0.88700  0.09100  Biso   1.000  H
  Ca2      1.0000 0.74694  0.55264  0.53414  Biso   1.000  Ca
  O5       1.0000 0.75010  0.34800  0.49600  Biso   1.000  O
  O6       1.0000 0.00640  0.34690  0.46600  Biso   1.000  O
  O7       1.0000 0.48960  0.52160  0.41195  Biso   1.000  O
  O8       1.0000 0.73200  0.52790  0.36770  Biso   1.000  O
  N5       1.0000 0.97910  0.10610  0.41050  Biso   1.000  N
  N6       1.0000 0.08200  0.03010  0.29360  Biso   1.000  N
  N7       1.0000 0.59380  0.44640  0.18900  Biso   1.000  N
  N8       1.0000 0.76670  0.39040  0.10060  Biso   1.000  N
  C22      1.0000 0.87630  0.29750  0.47510  Biso   1.000  C
  C23      1.0000 0.86340  0.16570  0.46410  Biso   1.000  C
  H25      1.0000 0.75200  0.13750  0.43550  Biso   1.000  H
  H26      1.0000 0.88320  0.14530  0.52340  Biso   1.000  H
  C24      1.0000 0.13740  0.07980  0.44170  Biso   1.000  C
  H27      1.0000 0.19050  0.09310  0.50150  Biso   1.000  H
  C25      1.0000 0.20130  0.03070  0.36820  Biso   1.000  C
  H28      1.0000 0.30600  0.00270  0.36830  Biso   1.000  H
  C26      1.0000 0.94920  0.07600  0.32100  Biso   1.000  C
  H29      1.0000 0.85120  0.08560  0.28370  Biso   1.000  H
  C27      1.0000 0.09740  0.98310  0.19870  Biso   1.000  C
  H30      1.0000 0.20760  0.00300  0.18970  Biso   1.000  H
  H31      1.0000 0.08240  0.89850  0.18700  Biso   1.000  H
  C28      1.0000 0.97240  0.03090  0.13190  Biso   1.000  C
  C29      1.0000 0.84560  0.95670  0.07600  Biso   1.000  C
  C30      1.0000 0.73630  0.00360  0.01330  Biso   1.000  C
  H32      1.0000 0.65310  0.95430  0.97500  Biso   1.000  H
  C31      1.0000 0.74640  0.11950  0.00580  Biso   1.000  C
  C32      1.0000 0.87440  0.19310  0.06270  Biso   1.000  C
  C33      1.0000 0.98770  0.14940  0.12530  Biso   1.000  C
  C34      1.0000 0.62210  0.16490  0.93770  Biso   1.000  C
  C35      1.0000 0.82240  0.82990  0.08110  Biso   1.000  C
  H33      1.0000 0.72900  0.79480  0.03720  Biso   1.000  H
  H34      1.0000 0.80420  0.82390  0.14040  Biso   1.000  H
  H35      1.0000 0.91930  0.79020  0.06890  Biso   1.000  H
  C36      1.0000 0.12570  0.22860  0.18480  Biso   1.000  C
  H36      1.0000 0.19770  0.18360  0.21950  Biso   1.000  H
  H37      1.0000 0.18660  0.26470  0.14800  Biso   1.000  H
  H38      1.0000 0.08070  0.28790  0.22480  Biso   1.000  H
  C37      1.0000 0.88650  0.31950  0.05350  Biso   1.000  C
  H39      1.0000 0.86520  0.32390  0.99000  Biso   1.000  H
  H40      1.0000 0.99750  0.35210  0.07870  Biso   1.000  H
  C38      1.0000 0.68820  0.36040  0.16260  Biso   1.000  C
  H41      1.0000 0.69770  0.29080  0.18400  Biso   1.000  H
  C39      1.0000 0.72200  0.49900  0.08800  Biso   1.000  C
  H42      1.0000 0.75890  0.54070  0.04830  Biso   1.000  H
  C40      1.0000 0.61480  0.53480  0.14340  Biso   1.000  C
  H43      1.0000 0.56460  0.60590  0.14960  Biso   1.000  H
  C41      1.0000 0.49190  0.44810  0.25870  Biso   1.000  C
  H44      1.0000 0.39430  0.49010  0.24340  Biso   1.000  H
  H45      1.0000 0.45620  0.36840  0.25930  Biso   1.000  H
  C42      1.0000 0.58080  0.50480  0.35260  Biso   1.000  C
  H46      1.0000 0.56800  0.22500  0.96900  Biso   1.000  H
  H47      1.0000 0.67400  0.20600  0.89700  Biso   1.000  H
  H48      1.0000 0.56300  0.11300  0.90900  Biso   1.000  H
