data_image0
_cell_length_a       6.9343
_cell_length_b       10.9163
_cell_length_c       16.8658
_cell_angle_alpha    95.788
_cell_angle_beta     94.361
_cell_angle_gamma    96.855

_symmetry_space_group_name_H-M    "P 1"
_symmetry_int_tables_number       1

loop_
  _symmetry_equiv_pos_as_xyz
  'x, y, z'

loop_
  _atom_site_label
  _atom_site_occupancy
  _atom_site_fract_x
  _atom_site_fract_y
  _atom_site_fract_z
  _atom_site_thermal_displace_type
  _atom_site_B_iso_or_equiv
  _atom_site_type_symbol
  Cu1      1.0000 0.50051  0.36055  0.00064  Biso   1.000  Cu
  Cu2      1.0000 0.53123  0.53163  0.18666  Biso   1.000  Cu
  O1       1.0000 0.45280  0.24310  0.07905  Biso   1.000  O
  O2       1.0000 0.57560  0.36020  0.19281  Biso   1.000  O
  O3       1.0000 0.49760  0.70760  0.19366  Biso   1.000  O
  O4       1.0000 0.44400  0.50628  0.07095  Biso   1.000  O
  H1       1.0000 0.33170  0.50960  0.08740  Biso   1.000  H
  O5       1.0000 0.46220  0.78090  0.07470  Biso   1.000  O
  O6       1.0000 0.68010  0.96790  0.43349  Biso   1.000  O
  O7       1.0000 0.71920  0.17400  0.43862  Biso   1.000  O
  N1       1.0000 0.60880  0.56080  0.30760  Biso   1.000  N
  N2       1.0000 0.97470  0.49370  0.46110  Biso   1.000  N
  C1       1.0000 0.49760  0.62490  0.35300  Biso   1.000  C
  H2       1.0000 0.38810  0.65420  0.33030  Biso   1.000  H
  C2       1.0000 0.54840  0.64730  0.43490  Biso   1.000  C
  H3       1.0000 0.47120  0.69280  0.46620  Biso   1.000  H
  C3       1.0000 0.76150  0.51890  0.34340  Biso   1.000  C
  H4       1.0000 0.83950  0.47290  0.31290  Biso   1.000  H
  C4       1.0000 0.80660  0.54270  0.42570  Biso   1.000  C
  C5       1.0000 0.70440  0.60590  0.47120  Biso   1.000  C
  H5       1.0000 0.73660  0.62230  0.52610  Biso   1.000  H
  C6       1.0000 0.51620  0.25920  0.15134  Biso   1.000  C
  C7       1.0000 0.52640  0.14440  0.19389  Biso   1.000  C
  C8       1.0000 0.48860  0.02590  0.15188  Biso   1.000  C
  H6       1.0000 0.45210  0.01650  0.09720  Biso   1.000  H
  C9       1.0000 0.50560  0.92170  0.19225  Biso   1.000  C
  C10      1.0000 0.48410  0.79250  0.14947  Biso   1.000  C
  C11      1.0000 0.55980  0.93690  0.27385  Biso   1.000  C
  H7       1.0000 0.56980  0.86760  0.30100  Biso   1.000  H
  C12      1.0000 0.59920  0.05510  0.31545  Biso   1.000  C
  C13      1.0000 0.58210  0.15910  0.27537  Biso   1.000  C
  H8       1.0000 0.60790  0.23810  0.30310  Biso   1.000  H
  C14      1.0000 0.67000  0.06680  0.40140  Biso   1.000  C
  Cu3      1.0000 0.49949  0.63945  0.99936  Biso   1.000  Cu
  Cu4      1.0000 0.46877  0.46837  0.81334  Biso   1.000  Cu
  O8       1.0000 0.54720  0.75690  0.92095  Biso   1.000  O
  O9       1.0000 0.42440  0.63980  0.80719  Biso   1.000  O
  O10      1.0000 0.50240  0.29240  0.80634  Biso   1.000  O
  O11      1.0000 0.55600  0.49372  0.92905  Biso   1.000  O
  H9       1.0000 0.66830  0.49040  0.91260  Biso   1.000  H
  O12      1.0000 0.53780  0.21910  0.92530  Biso   1.000  O
  O13      1.0000 0.31990  0.03210  0.56651  Biso   1.000  O
  O14      1.0000 0.28080  0.82600  0.56138  Biso   1.000  O
  N3       1.0000 0.39120  0.43920  0.69240  Biso   1.000  N
  N4       1.0000 0.02530  0.50630  0.53890  Biso   1.000  N
  C15      1.0000 0.50240  0.37510  0.64700  Biso   1.000  C
  H10      1.0000 0.61190  0.34580  0.66970  Biso   1.000  H
  C16      1.0000 0.45160  0.35270  0.56510  Biso   1.000  C
  H11      1.0000 0.52880  0.30720  0.53380  Biso   1.000  H
  C17      1.0000 0.23850  0.48110  0.65660  Biso   1.000  C
  H12      1.0000 0.16050  0.52710  0.68710  Biso   1.000  H
  C18      1.0000 0.19340  0.45730  0.57430  Biso   1.000  C
  C19      1.0000 0.29560  0.39410  0.52880  Biso   1.000  C
  H13      1.0000 0.26340  0.37770  0.47390  Biso   1.000  H
  C20      1.0000 0.48380  0.74080  0.84866  Biso   1.000  C
  C21      1.0000 0.47360  0.85560  0.80611  Biso   1.000  C
  C22      1.0000 0.51140  0.97410  0.84812  Biso   1.000  C
  H14      1.0000 0.54790  0.98350  0.90280  Biso   1.000  H
  C23      1.0000 0.49440  0.07830  0.80775  Biso   1.000  C
  C24      1.0000 0.51590  0.20750  0.85053  Biso   1.000  C
  C25      1.0000 0.44020  0.06310  0.72615  Biso   1.000  C
  H15      1.0000 0.43020  0.13240  0.69900  Biso   1.000  H
  C26      1.0000 0.40080  0.94490  0.68455  Biso   1.000  C
  C27      1.0000 0.41790  0.84090  0.72463  Biso   1.000  C
  H16      1.0000 0.39210  0.76190  0.69690  Biso   1.000  H
  C28      1.0000 0.33000  0.93320  0.59860  Biso   1.000  C
