data_image0
_cell_length_a       16.568
_cell_length_b       13.671
_cell_length_c       29.949
_cell_angle_alpha    90
_cell_angle_beta     111.38
_cell_angle_gamma    90

_symmetry_space_group_name_H-M    "P 1"
_symmetry_int_tables_number       1

loop_
  _symmetry_equiv_pos_as_xyz
  'x, y, z'

loop_
  _atom_site_label
  _atom_site_occupancy
  _atom_site_fract_x
  _atom_site_fract_y
  _atom_site_fract_z
  _atom_site_thermal_displace_type
  _atom_site_B_iso_or_equiv
  _atom_site_type_symbol
  Mn1      1.0000 0.75861  0.90328  0.74933  Biso   1.000  Mn
  N1       1.0000 0.65270  0.90020  0.68205  Biso   1.000  N
  N2       1.0000 0.86190  0.90030  0.81640  Biso   1.000  N
  N3       1.0000 0.75192  0.06030  0.75168  Biso   1.000  N
  N4       1.0000 0.76560  0.74900  0.74764  Biso   1.000  N
  N5       1.0000 0.27360  0.01400  0.12527  Biso   1.000  N
  N6       1.0000 0.22080  0.00200  0.37764  Biso   1.000  N
  C1       1.0000 0.73810  0.26700  0.75116  Biso   1.000  C
  C2       1.0000 0.98230  0.91050  0.91117  Biso   1.000  C
  C3       1.0000 0.59710  0.84410  0.60063  Biso   1.000  C
  H1       1.0000 0.60350  0.80300  0.57740  Biso   1.000  H
  C4       1.0000 0.04080  0.91740  0.96183  Biso   1.000  C
  H2       1.0000 0.02710  0.88000  0.98400  Biso   1.000  H
  C5       1.0000 0.52640  0.90700  0.58890  Biso   1.000  C
  C6       1.0000 0.91500  0.84270  0.89768  Biso   1.000  C
  H3       1.0000 0.90900  0.79940  0.92020  Biso   1.000  H
  C7       1.0000 0.21330  0.94330  0.11264  Biso   1.000  C
  H4       1.0000 0.20740  0.90410  0.13660  Biso   1.000  H
  C8       1.0000 0.46510  0.91260  0.53904  Biso   1.000  C
  H5       1.0000 0.47760  0.87500  0.51650  Biso   1.000  H
  C9       1.0000 0.28410  0.93490  0.38934  Biso   1.000  C
  H6       1.0000 0.29000  0.89700  0.36490  Biso   1.000  H
  C10      1.0000 0.92870  0.96330  0.82925  Biso   1.000  C
  H7       1.0000 0.93450  0.00430  0.80580  Biso   1.000  H
  C11      1.0000 0.34110  0.91880  0.43582  Biso   1.000  C
  H8       1.0000 0.38390  0.87120  0.44210  Biso   1.000  H
  C12      1.0000 0.80180  0.21960  0.73876  Biso   1.000  C
  H9       1.0000 0.84150  0.25600  0.73030  Biso   1.000  H
  C13      1.0000 0.68250  0.20690  0.76438  Biso   1.000  C
  H10      1.0000 0.63930  0.23440  0.77320  Biso   1.000  H
  C14      1.0000 0.51970  0.96520  0.62600  Biso   1.000  C
  H11      1.0000 0.47320  0.00770  0.62030  Biso   1.000  H
  C15      1.0000 0.15950  0.92570  0.06562  Biso   1.000  C
  H12      1.0000 0.11820  0.87620  0.05850  Biso   1.000  H
  C16      1.0000 0.16810  0.98310  0.02898  Biso   1.000  C
  C17      1.0000 0.69170  0.10670  0.76431  Biso   1.000  C
  H13      1.0000 0.65400  0.06870  0.77360  Biso   1.000  H
  C18      1.0000 0.58290  0.95830  0.67102  Biso   1.000  C
  H14      1.0000 0.57690  0.99650  0.69530  Biso   1.000  H
  C19      1.0000 0.98950  0.97090  0.87519  Biso   1.000  C
  H15      1.0000 0.03460  0.01570  0.88210  Biso   1.000  H
  C20      1.0000 0.39370  0.96620  0.52328  Biso   1.000  C
  H16      1.0000 0.38010  0.00190  0.54600  Biso   1.000  H
  C21      1.0000 0.11100  0.97230  0.97819  Biso   1.000  C
  H17      1.0000 0.12590  0.00730  0.95570  Biso   1.000  H
  C22      1.0000 0.85740  0.83980  0.85115  Biso   1.000  C
  H18      1.0000 0.81310  0.79380  0.84310  Biso   1.000  H
  C23      1.0000 0.33360  0.97480  0.47301  Biso   1.000  C
  C24      1.0000 0.21270  0.05450  0.41364  Biso   1.000  C
  H19      1.0000 0.16870  0.10080  0.40630  Biso   1.000  H
  C25      1.0000 0.65800  0.84260  0.64671  Biso   1.000  C
  H20      1.0000 0.70470  0.79990  0.65360  Biso   1.000  H
  C26      1.0000 0.28270  0.06780  0.08984  Biso   1.000  C
  H21      1.0000 0.32510  0.11610  0.09790  Biso   1.000  H
  C27      1.0000 0.26670  0.04310  0.46112  Biso   1.000  C
  H22      1.0000 0.25840  0.08090  0.48490  Biso   1.000  H
  C28      1.0000 0.23210  0.05460  0.04208  Biso   1.000  C
  H23      1.0000 0.24090  0.09340  0.01870  Biso   1.000  H
  C29      1.0000 0.80570  0.11900  0.73905  Biso   1.000  C
  H24      1.0000 0.84800  0.08950  0.73000  Biso   1.000  H
  C30      1.0000 0.78780  0.43750  0.74920  Biso   1.000  C
  H25      1.0000 0.83930  0.41260  0.74800  Biso   1.000  H
  C31      1.0000 0.72870  0.37360  0.75137  Biso   1.000  C
  H26      1.0000 0.67770  0.39840  0.75310  Biso   1.000  H
  C32      1.0000 0.84080  0.70340  0.75410  Biso   1.000  C
  H27      1.0000 0.88960  0.74160  0.75870  Biso   1.000  H
  C33      1.0000 0.77770  0.54400  0.74852  Biso   1.000  C
  C34      1.0000 0.69690  0.69190  0.74158  Biso   1.000  C
  H28      1.0000 0.64400  0.72160  0.73700  Biso   1.000  H
  C35      1.0000 0.84980  0.60320  0.75437  Biso   1.000  C
  H29      1.0000 0.90310  0.57520  0.75840  Biso   1.000  H
  C36      1.0000 0.70070  0.59110  0.74181  Biso   1.000  C
  H30      1.0000 0.65090  0.55470  0.73740  Biso   1.000  H
  Mn2      1.0000 0.24139  0.40328  0.75067  Biso   1.000  Mn
  N7       1.0000 0.34730  0.40020  0.81795  Biso   1.000  N
  N8       1.0000 0.13810  0.40030  0.68360  Biso   1.000  N
  N9       1.0000 0.24808  0.56030  0.74832  Biso   1.000  N
  N10      1.0000 0.23440  0.24900  0.75236  Biso   1.000  N
  N11      1.0000 0.72640  0.51400  0.37473  Biso   1.000  N
  N12      1.0000 0.77920  0.50200  0.12236  Biso   1.000  N
  C37      1.0000 0.26190  0.76700  0.74884  Biso   1.000  C
  C38      1.0000 0.01770  0.41050  0.58883  Biso   1.000  C
  C39      1.0000 0.40290  0.34410  0.89937  Biso   1.000  C
  H31      1.0000 0.39650  0.30300  0.92260  Biso   1.000  H
  C40      1.0000 0.95920  0.41740  0.53817  Biso   1.000  C
  H32      1.0000 0.97290  0.38000  0.51600  Biso   1.000  H
  C41      1.0000 0.47360  0.40700  0.91110  Biso   1.000  C
  C42      1.0000 0.08500  0.34270  0.60232  Biso   1.000  C
  H33      1.0000 0.09100  0.29940  0.57980  Biso   1.000  H
  C43      1.0000 0.78670  0.44330  0.38736  Biso   1.000  C
  H34      1.0000 0.79260  0.40410  0.36340  Biso   1.000  H
  C44      1.0000 0.53490  0.41260  0.96096  Biso   1.000  C
  H35      1.0000 0.52240  0.37500  0.98350  Biso   1.000  H
  C45      1.0000 0.71590  0.43490  0.11066  Biso   1.000  C
  H36      1.0000 0.71000  0.39700  0.13510  Biso   1.000  H
  C46      1.0000 0.07130  0.46330  0.67075  Biso   1.000  C
  H37      1.0000 0.06550  0.50430  0.69420  Biso   1.000  H
  C47      1.0000 0.65890  0.41880  0.06418  Biso   1.000  C
  H38      1.0000 0.61610  0.37120  0.05790  Biso   1.000  H
  C48      1.0000 0.19820  0.71960  0.76124  Biso   1.000  C
  H39      1.0000 0.15850  0.75600  0.76970  Biso   1.000  H
  C49      1.0000 0.31750  0.70690  0.73562  Biso   1.000  C
  H40      1.0000 0.36070  0.73440  0.72680  Biso   1.000  H
  C50      1.0000 0.48030  0.46520  0.87400  Biso   1.000  C
  H41      1.0000 0.52680  0.50770  0.87970  Biso   1.000  H
  C51      1.0000 0.84050  0.42570  0.43438  Biso   1.000  C
  H42      1.0000 0.88180  0.37620  0.44150  Biso   1.000  H
  C52      1.0000 0.83190  0.48310  0.47102  Biso   1.000  C
  C53      1.0000 0.30830  0.60670  0.73569  Biso   1.000  C
  H43      1.0000 0.34600  0.56870  0.72640  Biso   1.000  H
  C54      1.0000 0.41710  0.45830  0.82898  Biso   1.000  C
  H44      1.0000 0.42310  0.49650  0.80470  Biso   1.000  H
  C55      1.0000 0.01050  0.47090  0.62481  Biso   1.000  C
  H45      1.0000 0.96540  0.51570  0.61790  Biso   1.000  H
  C56      1.0000 0.60630  0.46620  0.97672  Biso   1.000  C
  H46      1.0000 0.61990  0.50190  0.95400  Biso   1.000  H
  C57      1.0000 0.88900  0.47230  0.52181  Biso   1.000  C
  H47      1.0000 0.87410  0.50730  0.54430  Biso   1.000  H
  C58      1.0000 0.14260  0.33980  0.64885  Biso   1.000  C
  H48      1.0000 0.18690  0.29380  0.65690  Biso   1.000  H
  C59      1.0000 0.66640  0.47480  0.02699  Biso   1.000  C
  C60      1.0000 0.78730  0.55450  0.08636  Biso   1.000  C
  H49      1.0000 0.83130  0.60080  0.09370  Biso   1.000  H
  C61      1.0000 0.34200  0.34260  0.85329  Biso   1.000  C
  H50      1.0000 0.29530  0.29990  0.84640  Biso   1.000  H
  C62      1.0000 0.71730  0.56780  0.41016  Biso   1.000  C
  H51      1.0000 0.67490  0.61610  0.40210  Biso   1.000  H
  C63      1.0000 0.73330  0.54310  0.03888  Biso   1.000  C
  H52      1.0000 0.74160  0.58090  0.01510  Biso   1.000  H
  C64      1.0000 0.76790  0.55460  0.45792  Biso   1.000  C
  H53      1.0000 0.75910  0.59340  0.48130  Biso   1.000  H
  C65      1.0000 0.19430  0.61900  0.76095  Biso   1.000  C
  H54      1.0000 0.15200  0.58950  0.77000  Biso   1.000  H
  C66      1.0000 0.21220  0.93750  0.75080  Biso   1.000  C
  H55      1.0000 0.16070  0.91260  0.75200  Biso   1.000  H
  C67      1.0000 0.27130  0.87360  0.74863  Biso   1.000  C
  H56      1.0000 0.32230  0.89840  0.74690  Biso   1.000  H
  C68      1.0000 0.15920  0.20340  0.74590  Biso   1.000  C
  H57      1.0000 0.11040  0.24160  0.74130  Biso   1.000  H
  C69      1.0000 0.22230  0.04400  0.75148  Biso   1.000  C
  C70      1.0000 0.30310  0.19190  0.75842  Biso   1.000  C
  H58      1.0000 0.35600  0.22160  0.76300  Biso   1.000  H
  C71      1.0000 0.15020  0.10320  0.74563  Biso   1.000  C
  H59      1.0000 0.09690  0.07520  0.74160  Biso   1.000  H
  C72      1.0000 0.29930  0.09110  0.75819  Biso   1.000  C
  H60      1.0000 0.34910  0.05470  0.76260  Biso   1.000  H
  Mn3      1.0000 0.24139  0.09672  0.25067  Biso   1.000  Mn
  N13      1.0000 0.34730  0.09980  0.31795  Biso   1.000  N
  N14      1.0000 0.13810  0.09970  0.18360  Biso   1.000  N
  N15      1.0000 0.24808  0.93970  0.24832  Biso   1.000  N
  N16      1.0000 0.23440  0.25100  0.25236  Biso   1.000  N
  N17      1.0000 0.72640  0.98600  0.87473  Biso   1.000  N
  N18      1.0000 0.77920  0.99800  0.62236  Biso   1.000  N
  C73      1.0000 0.26190  0.73300  0.24884  Biso   1.000  C
  C74      1.0000 0.01770  0.08950  0.08883  Biso   1.000  C
  C75      1.0000 0.40290  0.15590  0.39937  Biso   1.000  C
  H61      1.0000 0.39650  0.19700  0.42260  Biso   1.000  H
  C76      1.0000 0.95920  0.08260  0.03817  Biso   1.000  C
  H62      1.0000 0.97290  0.12000  0.01600  Biso   1.000  H
  C77      1.0000 0.47360  0.09300  0.41110  Biso   1.000  C
  C78      1.0000 0.08500  0.15730  0.10232  Biso   1.000  C
  H63      1.0000 0.09100  0.20060  0.07980  Biso   1.000  H
  C79      1.0000 0.78670  0.05670  0.88736  Biso   1.000  C
  H64      1.0000 0.79260  0.09590  0.86340  Biso   1.000  H
  C80      1.0000 0.53490  0.08740  0.46096  Biso   1.000  C
  H65      1.0000 0.52240  0.12500  0.48350  Biso   1.000  H
  C81      1.0000 0.71590  0.06510  0.61066  Biso   1.000  C
  H66      1.0000 0.71000  0.10300  0.63510  Biso   1.000  H
  C82      1.0000 0.07130  0.03670  0.17075  Biso   1.000  C
  H67      1.0000 0.06550  0.99570  0.19420  Biso   1.000  H
  C83      1.0000 0.65890  0.08120  0.56418  Biso   1.000  C
  H68      1.0000 0.61610  0.12880  0.55790  Biso   1.000  H
  C84      1.0000 0.19820  0.78040  0.26124  Biso   1.000  C
  H69      1.0000 0.15850  0.74400  0.26970  Biso   1.000  H
  C85      1.0000 0.31750  0.79310  0.23562  Biso   1.000  C
  H70      1.0000 0.36070  0.76560  0.22680  Biso   1.000  H
  C86      1.0000 0.48030  0.03480  0.37400  Biso   1.000  C
  H71      1.0000 0.52680  0.99230  0.37970  Biso   1.000  H
  C87      1.0000 0.84050  0.07430  0.93438  Biso   1.000  C
  H72      1.0000 0.88180  0.12380  0.94150  Biso   1.000  H
  C88      1.0000 0.83190  0.01690  0.97102  Biso   1.000  C
  C89      1.0000 0.30830  0.89330  0.23569  Biso   1.000  C
  H73      1.0000 0.34600  0.93130  0.22640  Biso   1.000  H
  C90      1.0000 0.41710  0.04170  0.32898  Biso   1.000  C
  H74      1.0000 0.42310  0.00350  0.30470  Biso   1.000  H
  C91      1.0000 0.01050  0.02910  0.12481  Biso   1.000  C
  H75      1.0000 0.96540  0.98430  0.11790  Biso   1.000  H
  C92      1.0000 0.60630  0.03380  0.47672  Biso   1.000  C
  H76      1.0000 0.61990  0.99810  0.45400  Biso   1.000  H
  C93      1.0000 0.88900  0.02770  0.02181  Biso   1.000  C
  H77      1.0000 0.87410  0.99270  0.04430  Biso   1.000  H
  C94      1.0000 0.14260  0.16020  0.14885  Biso   1.000  C
  H78      1.0000 0.18690  0.20620  0.15690  Biso   1.000  H
  C95      1.0000 0.66640  0.02520  0.52699  Biso   1.000  C
  C96      1.0000 0.78730  0.94550  0.58636  Biso   1.000  C
  H79      1.0000 0.83130  0.89920  0.59370  Biso   1.000  H
  C97      1.0000 0.34200  0.15740  0.35329  Biso   1.000  C
  H80      1.0000 0.29530  0.20010  0.34640  Biso   1.000  H
  C98      1.0000 0.71730  0.93220  0.91016  Biso   1.000  C
  H81      1.0000 0.67490  0.88390  0.90210  Biso   1.000  H
  C99      1.0000 0.73330  0.95690  0.53888  Biso   1.000  C
  H82      1.0000 0.74160  0.91910  0.51510  Biso   1.000  H
  C100     1.0000 0.76790  0.94540  0.95792  Biso   1.000  C
  H83      1.0000 0.75910  0.90660  0.98130  Biso   1.000  H
  C101     1.0000 0.19430  0.88100  0.26095  Biso   1.000  C
  H84      1.0000 0.15200  0.91050  0.27000  Biso   1.000  H
  C102     1.0000 0.21220  0.56250  0.25080  Biso   1.000  C
  H85      1.0000 0.16070  0.58740  0.25200  Biso   1.000  H
  C103     1.0000 0.27130  0.62640  0.24863  Biso   1.000  C
  H86      1.0000 0.32230  0.60160  0.24690  Biso   1.000  H
  C104     1.0000 0.15920  0.29660  0.24590  Biso   1.000  C
  H87      1.0000 0.11040  0.25840  0.24130  Biso   1.000  H
  C105     1.0000 0.22230  0.45600  0.25148  Biso   1.000  C
  C106     1.0000 0.30310  0.30810  0.25842  Biso   1.000  C
  H88      1.0000 0.35600  0.27840  0.26300  Biso   1.000  H
  C107     1.0000 0.15020  0.39680  0.24563  Biso   1.000  C
  H89      1.0000 0.09690  0.42480  0.24160  Biso   1.000  H
  C108     1.0000 0.29930  0.40890  0.25819  Biso   1.000  C
  H90      1.0000 0.34910  0.44530  0.26260  Biso   1.000  H
  Mn4      1.0000 0.75861  0.59672  0.24933  Biso   1.000  Mn
  N19      1.0000 0.65270  0.59980  0.18205  Biso   1.000  N
  N20      1.0000 0.86190  0.59970  0.31640  Biso   1.000  N
  N21      1.0000 0.75192  0.43970  0.25168  Biso   1.000  N
  N22      1.0000 0.76560  0.75100  0.24764  Biso   1.000  N
  N23      1.0000 0.27360  0.48600  0.62527  Biso   1.000  N
  N24      1.0000 0.22080  0.49800  0.87764  Biso   1.000  N
  C109     1.0000 0.73810  0.23300  0.25116  Biso   1.000  C
  C110     1.0000 0.98230  0.58950  0.41117  Biso   1.000  C
  C111     1.0000 0.59710  0.65590  0.10063  Biso   1.000  C
  H91      1.0000 0.60350  0.69700  0.07740  Biso   1.000  H
  C112     1.0000 0.04080  0.58260  0.46183  Biso   1.000  C
  H92      1.0000 0.02710  0.62000  0.48400  Biso   1.000  H
  C113     1.0000 0.52640  0.59300  0.08890  Biso   1.000  C
  C114     1.0000 0.91500  0.65730  0.39768  Biso   1.000  C
  H93      1.0000 0.90900  0.70060  0.42020  Biso   1.000  H
  C115     1.0000 0.21330  0.55670  0.61264  Biso   1.000  C
  H94      1.0000 0.20740  0.59590  0.63660  Biso   1.000  H
  C116     1.0000 0.46510  0.58740  0.03904  Biso   1.000  C
  H95      1.0000 0.47760  0.62500  0.01650  Biso   1.000  H
  C117     1.0000 0.28410  0.56510  0.88934  Biso   1.000  C
  H96      1.0000 0.29000  0.60300  0.86490  Biso   1.000  H
  C118     1.0000 0.92870  0.53670  0.32925  Biso   1.000  C
  H97      1.0000 0.93450  0.49570  0.30580  Biso   1.000  H
  C119     1.0000 0.34110  0.58120  0.93582  Biso   1.000  C
  H98      1.0000 0.38390  0.62880  0.94210  Biso   1.000  H
  C120     1.0000 0.80180  0.28040  0.23876  Biso   1.000  C
  H99      1.0000 0.84150  0.24400  0.23030  Biso   1.000  H
  C121     1.0000 0.68250  0.29310  0.26438  Biso   1.000  C
  H100     1.0000 0.63930  0.26560  0.27320  Biso   1.000  H
  C122     1.0000 0.51970  0.53480  0.12600  Biso   1.000  C
  H101     1.0000 0.47320  0.49230  0.12030  Biso   1.000  H
  C123     1.0000 0.15950  0.57430  0.56562  Biso   1.000  C
  H102     1.0000 0.11820  0.62380  0.55850  Biso   1.000  H
  C124     1.0000 0.16810  0.51690  0.52898  Biso   1.000  C
  C125     1.0000 0.69170  0.39330  0.26431  Biso   1.000  C
  H103     1.0000 0.65400  0.43130  0.27360  Biso   1.000  H
  C126     1.0000 0.58290  0.54170  0.17102  Biso   1.000  C
  H104     1.0000 0.57690  0.50350  0.19530  Biso   1.000  H
  C127     1.0000 0.98950  0.52910  0.37519  Biso   1.000  C
  H105     1.0000 0.03460  0.48430  0.38210  Biso   1.000  H
  C128     1.0000 0.39370  0.53380  0.02328  Biso   1.000  C
  H106     1.0000 0.38010  0.49810  0.04600  Biso   1.000  H
  C129     1.0000 0.11100  0.52770  0.47819  Biso   1.000  C
  H107     1.0000 0.12590  0.49270  0.45570  Biso   1.000  H
  C130     1.0000 0.85740  0.66020  0.35115  Biso   1.000  C
  H108     1.0000 0.81310  0.70620  0.34310  Biso   1.000  H
  C131     1.0000 0.33360  0.52520  0.97301  Biso   1.000  C
  C132     1.0000 0.21270  0.44550  0.91364  Biso   1.000  C
  H109     1.0000 0.16870  0.39920  0.90630  Biso   1.000  H
  C133     1.0000 0.65800  0.65740  0.14671  Biso   1.000  C
  H110     1.0000 0.70470  0.70010  0.15360  Biso   1.000  H
  C134     1.0000 0.28270  0.43220  0.58984  Biso   1.000  C
  H111     1.0000 0.32510  0.38390  0.59790  Biso   1.000  H
  C135     1.0000 0.26670  0.45690  0.96112  Biso   1.000  C
  H112     1.0000 0.25840  0.41910  0.98490  Biso   1.000  H
  C136     1.0000 0.23210  0.44540  0.54208  Biso   1.000  C
  H113     1.0000 0.24090  0.40660  0.51870  Biso   1.000  H
  C137     1.0000 0.80570  0.38100  0.23905  Biso   1.000  C
  H114     1.0000 0.84800  0.41050  0.23000  Biso   1.000  H
  C138     1.0000 0.78780  0.06250  0.24920  Biso   1.000  C
  H115     1.0000 0.83930  0.08740  0.24800  Biso   1.000  H
  C139     1.0000 0.72870  0.12640  0.25137  Biso   1.000  C
  H116     1.0000 0.67770  0.10160  0.25310  Biso   1.000  H
  C140     1.0000 0.84080  0.79660  0.25410  Biso   1.000  C
  H117     1.0000 0.88960  0.75840  0.25870  Biso   1.000  H
  C141     1.0000 0.77770  0.95600  0.24852  Biso   1.000  C
  C142     1.0000 0.69690  0.80810  0.24158  Biso   1.000  C
  H118     1.0000 0.64400  0.77840  0.23700  Biso   1.000  H
  C143     1.0000 0.84980  0.89680  0.25437  Biso   1.000  C
  H119     1.0000 0.90310  0.92480  0.25840  Biso   1.000  H
  C144     1.0000 0.70070  0.90890  0.24181  Biso   1.000  C
  H120     1.0000 0.65090  0.94530  0.23740  Biso   1.000  H
