data_image0
_cell_length_a       21.756
_cell_length_b       29.059
_cell_length_c       31.149
_cell_angle_alpha    90
_cell_angle_beta     92.594
_cell_angle_gamma    90

_symmetry_space_group_name_H-M    "P 1"
_symmetry_int_tables_number       1

loop_
  _symmetry_equiv_pos_as_xyz
  'x, y, z'

loop_
  _atom_site_label
  _atom_site_occupancy
  _atom_site_fract_x
  _atom_site_fract_y
  _atom_site_fract_z
  _atom_site_thermal_displace_type
  _atom_site_B_iso_or_equiv
  _atom_site_type_symbol
  Mo1      1.0000 0.18088  0.32856  0.45537  Biso   1.000  Mo
  Mo2      1.0000 0.20091  0.44152  0.50636  Biso   1.000  Mo
  Mo3      1.0000 0.26396  0.43063  0.29647  Biso   1.000  Mo
  Mo4      1.0000 0.39610  0.42852  0.37531  Biso   1.000  Mo
  Mo5      1.0000 0.99614  0.44382  0.36119  Biso   1.000  Mo
  Mo6      1.0000 0.20470  0.67829  0.44348  Biso   1.000  Mo
  Mo7      1.0000 0.23588  0.67322  0.33431  Biso   1.000  Mo
  Mo8      1.0000 0.00102  0.57323  0.35657  Biso   1.000  Mo
  Mo9      1.0000 0.21355  0.32311  0.34577  Biso   1.000  Mo
  Mo10     1.0000 0.40414  0.55730  0.37006  Biso   1.000  Mo
  Mo11     1.0000 0.06662  0.32709  0.37811  Biso   1.000  Mo
  Mo12     1.0000 0.20872  0.56931  0.50301  Biso   1.000  Mo
  Mo13     1.0000 0.27178  0.55839  0.29187  Biso   1.000  Mo
  Mo14     1.0000 0.36510  0.43444  0.48087  Biso   1.000  Mo
  Mo15     1.0000 0.08917  0.68331  0.36693  Biso   1.000  Mo
  Mo16     1.0000 0.32855  0.32752  0.42463  Biso   1.000  Mo
  Mo17     1.0000 0.37219  0.56320  0.47633  Biso   1.000  Mo
  Mo18     1.0000 0.35157  0.66661  0.41184  Biso   1.000  Mo
  Sr1      1.0000 0.13825  0.50341  0.38273  Biso   1.000  Sr
  P1       1.0000 0.25390  0.57217  0.39894  Biso   1.000  P
  P2       1.0000 0.24491  0.42714  0.40426  Biso   1.000  P
  P3       1.0000 0.11584  0.40679  0.30540  Biso   1.000  P
  P4       1.0000 0.08410  0.60206  0.44663  Biso   1.000  P
  P5       1.0000 0.12830  0.59412  0.29923  Biso   1.000  P
  P6       1.0000 0.07140  0.41294  0.45223  Biso   1.000  P
  O1       1.0000 0.40600  0.49250  0.37410  Biso   1.000  O
  O2       1.0000 0.26200  0.49460  0.28950  Biso   1.000  O
  O3       1.0000 0.19680  0.50570  0.50580  Biso   1.000  O
  O4       1.0000 0.11790  0.58000  0.48520  Biso   1.000  O
  O5       1.0000 0.01690  0.37780  0.36840  Biso   1.000  O
  O6       1.0000 0.20210  0.44770  0.43600  Biso   1.000  O
  O7       1.0000 0.37460  0.49850  0.47870  Biso   1.000  O
  O8       1.0000 0.34050  0.43070  0.32800  Biso   1.000  O
  O9       1.0000 0.42380  0.42580  0.43570  Biso   1.000  O
  O10      1.0000 0.05980  0.44840  0.41690  Biso   1.000  O
  O11      1.0000 0.20050  0.37280  0.49230  Biso   1.000  O
  O12      1.0000 0.36050  0.63130  0.45860  Biso   1.000  O
  O13      1.0000 0.13500  0.36740  0.33710  Biso   1.000  O
  O14      1.0000 0.12360  0.63870  0.42430  Biso   1.000  O
  O15      1.0000 0.22510  0.44420  0.35920  Biso   1.000  O
  O16      1.0000 0.21680  0.63550  0.48340  Biso   1.000  O
  O17      1.0000 0.09390  0.56100  0.32580  Biso   1.000  O
  O18      1.0000 0.06810  0.38920  0.27200  Biso   1.000  O
  O19      1.0000 0.17900  0.57070  0.27620  Biso   1.000  O
  O20      1.0000 0.31860  0.55580  0.41080  Biso   1.000  O
  O21      1.0000 0.29390  0.56400  0.49990  Biso   1.000  O
  O22      1.0000 0.27800  0.29560  0.37390  Biso   1.000  O
  O23      1.0000 0.23960  0.37270  0.40570  Biso   1.000  O
  O24      1.0000 0.25580  0.62650  0.39710  Biso   1.000  O
  O25      1.0000 0.31130  0.44000  0.41530  Biso   1.000  O
  O26      1.0000 0.96180  0.43550  0.31010  Biso   1.000  O
  O27      1.0000 0.08770  0.44480  0.33210  Biso   1.000  O
  O28      1.0000 0.28730  0.44100  0.50480  Biso   1.000  O
  O29      1.0000 0.28080  0.70160  0.44020  Biso   1.000  O
  O30      1.0000 0.08510  0.61740  0.26460  Biso   1.000  O
  O31      1.0000 0.15510  0.30670  0.39400  Biso   1.000  O
  O32      1.0000 0.25320  0.36440  0.31470  Biso   1.000  O
  O33      1.0000 0.17950  0.69630  0.38100  Biso   1.000  O
  O34      1.0000 0.38440  0.62600  0.37550  Biso   1.000  O
  O35      1.0000 0.20930  0.55710  0.43160  Biso   1.000  O
  O36      1.0000 0.01140  0.50720  0.36010  Biso   1.000  O
  O37      1.0000 0.34460  0.36620  0.46860  Biso   1.000  O
  O38      1.0000 0.25360  0.30030  0.45370  Biso   1.000  O
  O39      1.0000 0.23140  0.55340  0.35540  Biso   1.000  O
  O40      1.0000 0.36770  0.36090  0.38540  Biso   1.000  O
  O41      1.0000 0.17210  0.42510  0.28260  Biso   1.000  O
  O42      1.0000 0.10810  0.37220  0.43240  Biso   1.000  O
  O43      1.0000 0.06650  0.56590  0.41380  Biso   1.000  O
  O44      1.0000 0.30390  0.69760  0.35960  Biso   1.000  O
  O45      1.0000 0.43150  0.56330  0.43020  Biso   1.000  O
  O46      1.0000 0.26940  0.62730  0.30640  Biso   1.000  O
  O47      1.0000 0.15290  0.63500  0.32800  Biso   1.000  O
  O48      1.0000 0.34740  0.55490  0.32220  Biso   1.000  O
  O49      1.0000 0.02720  0.62690  0.46290  Biso   1.000  O
  O50      1.0000 0.96650  0.57630  0.30550  Biso   1.000  O
  O51      1.0000 0.10870  0.43450  0.48920  Biso   1.000  O
  O52      1.0000 0.03230  0.63550  0.35960  Biso   1.000  O
  O53      1.0000 0.01020  0.39550  0.46690  Biso   1.000  O
  Mo19     1.0000 0.81912  0.32856  0.04463  Biso   1.000  Mo
  Mo20     1.0000 0.79909  0.44152  0.99364  Biso   1.000  Mo
  Mo21     1.0000 0.73604  0.43063  0.20353  Biso   1.000  Mo
  Mo22     1.0000 0.60390  0.42852  0.12469  Biso   1.000  Mo
  Mo23     1.0000 0.00386  0.44382  0.13881  Biso   1.000  Mo
  Mo24     1.0000 0.79530  0.67829  0.05652  Biso   1.000  Mo
  Mo25     1.0000 0.76412  0.67322  0.16569  Biso   1.000  Mo
  Mo26     1.0000 0.99898  0.57323  0.14343  Biso   1.000  Mo
  Mo27     1.0000 0.78645  0.32311  0.15423  Biso   1.000  Mo
  Mo28     1.0000 0.59586  0.55730  0.12994  Biso   1.000  Mo
  Mo29     1.0000 0.93338  0.32709  0.12189  Biso   1.000  Mo
  Mo30     1.0000 0.79128  0.56931  0.99699  Biso   1.000  Mo
  Mo31     1.0000 0.72822  0.55839  0.20813  Biso   1.000  Mo
  Mo32     1.0000 0.63490  0.43444  0.01913  Biso   1.000  Mo
  Mo33     1.0000 0.91083  0.68331  0.13307  Biso   1.000  Mo
  Mo34     1.0000 0.67145  0.32752  0.07537  Biso   1.000  Mo
  Mo35     1.0000 0.62781  0.56320  0.02367  Biso   1.000  Mo
  Mo36     1.0000 0.64843  0.66661  0.08816  Biso   1.000  Mo
  Sr2      1.0000 0.86175  0.50341  0.11727  Biso   1.000  Sr
  P7       1.0000 0.74610  0.57217  0.10106  Biso   1.000  P
  P8       1.0000 0.75509  0.42714  0.09574  Biso   1.000  P
  P9       1.0000 0.88416  0.40679  0.19460  Biso   1.000  P
  P10      1.0000 0.91590  0.60206  0.05337  Biso   1.000  P
  P11      1.0000 0.87170  0.59412  0.20077  Biso   1.000  P
  P12      1.0000 0.92860  0.41294  0.04777  Biso   1.000  P
  O54      1.0000 0.59400  0.49250  0.12590  Biso   1.000  O
  O55      1.0000 0.73800  0.49460  0.21050  Biso   1.000  O
  O56      1.0000 0.80320  0.50570  0.99420  Biso   1.000  O
  O57      1.0000 0.88210  0.58000  0.01480  Biso   1.000  O
  O58      1.0000 0.98310  0.37780  0.13160  Biso   1.000  O
  O59      1.0000 0.79790  0.44770  0.06400  Biso   1.000  O
  O60      1.0000 0.62540  0.49850  0.02130  Biso   1.000  O
  O61      1.0000 0.65950  0.43070  0.17200  Biso   1.000  O
  O62      1.0000 0.57620  0.42580  0.06430  Biso   1.000  O
  O63      1.0000 0.94020  0.44840  0.08310  Biso   1.000  O
  O64      1.0000 0.79950  0.37280  0.00770  Biso   1.000  O
  O65      1.0000 0.63950  0.63130  0.04140  Biso   1.000  O
  O66      1.0000 0.86500  0.36740  0.16290  Biso   1.000  O
  O67      1.0000 0.87640  0.63870  0.07570  Biso   1.000  O
  O68      1.0000 0.77490  0.44420  0.14080  Biso   1.000  O
  O69      1.0000 0.78320  0.63550  0.01660  Biso   1.000  O
  O70      1.0000 0.90610  0.56100  0.17420  Biso   1.000  O
  O71      1.0000 0.93190  0.38920  0.22800  Biso   1.000  O
  O72      1.0000 0.82100  0.57070  0.22380  Biso   1.000  O
  O73      1.0000 0.68140  0.55580  0.08920  Biso   1.000  O
  O74      1.0000 0.70610  0.56400  0.00010  Biso   1.000  O
  O75      1.0000 0.72200  0.29560  0.12610  Biso   1.000  O
  O76      1.0000 0.76040  0.37270  0.09430  Biso   1.000  O
  O77      1.0000 0.74420  0.62650  0.10290  Biso   1.000  O
  O78      1.0000 0.68870  0.44000  0.08470  Biso   1.000  O
  O79      1.0000 0.03820  0.43550  0.18990  Biso   1.000  O
  O80      1.0000 0.91230  0.44480  0.16790  Biso   1.000  O
  O81      1.0000 0.71270  0.44100  0.99520  Biso   1.000  O
  O82      1.0000 0.71920  0.70160  0.05980  Biso   1.000  O
  O83      1.0000 0.91490  0.61740  0.23540  Biso   1.000  O
  O84      1.0000 0.84490  0.30670  0.10600  Biso   1.000  O
  O85      1.0000 0.74680  0.36440  0.18530  Biso   1.000  O
  O86      1.0000 0.82050  0.69630  0.11900  Biso   1.000  O
  O87      1.0000 0.61560  0.62600  0.12450  Biso   1.000  O
  O88      1.0000 0.79070  0.55710  0.06840  Biso   1.000  O
  O89      1.0000 0.98860  0.50720  0.13990  Biso   1.000  O
  O90      1.0000 0.65540  0.36620  0.03140  Biso   1.000  O
  O91      1.0000 0.74640  0.30030  0.04630  Biso   1.000  O
  O92      1.0000 0.76860  0.55340  0.14460  Biso   1.000  O
  O93      1.0000 0.63230  0.36090  0.11460  Biso   1.000  O
  O94      1.0000 0.82790  0.42510  0.21740  Biso   1.000  O
  O95      1.0000 0.89190  0.37220  0.06760  Biso   1.000  O
  O96      1.0000 0.93350  0.56590  0.08620  Biso   1.000  O
  O97      1.0000 0.69610  0.69760  0.14040  Biso   1.000  O
  O98      1.0000 0.56850  0.56330  0.06980  Biso   1.000  O
  O99      1.0000 0.73060  0.62730  0.19360  Biso   1.000  O
  O100     1.0000 0.84710  0.63500  0.17200  Biso   1.000  O
  O101     1.0000 0.65260  0.55490  0.17780  Biso   1.000  O
  O102     1.0000 0.97280  0.62690  0.03710  Biso   1.000  O
  O103     1.0000 0.03350  0.57630  0.19450  Biso   1.000  O
  O104     1.0000 0.89130  0.43450  0.01080  Biso   1.000  O
  O105     1.0000 0.96770  0.63550  0.14040  Biso   1.000  O
  O106     1.0000 0.98980  0.39550  0.03310  Biso   1.000  O
  Zn1      1.0000 0.00000  0.58397  0.25000  Biso   1.000  Zn
  Zn2      1.0000 0.00000  0.42737  0.25000  Biso   1.000  Zn
  Mo37     1.0000 0.68088  0.82856  0.45537  Biso   1.000  Mo
  Mo38     1.0000 0.70091  0.94152  0.50636  Biso   1.000  Mo
  Mo39     1.0000 0.76396  0.93063  0.29647  Biso   1.000  Mo
  Mo40     1.0000 0.89610  0.92852  0.37531  Biso   1.000  Mo
  Mo41     1.0000 0.49614  0.94382  0.36119  Biso   1.000  Mo
  Mo42     1.0000 0.70470  0.17829  0.44348  Biso   1.000  Mo
  Mo43     1.0000 0.73588  0.17322  0.33431  Biso   1.000  Mo
  Mo44     1.0000 0.50102  0.07323  0.35657  Biso   1.000  Mo
  Mo45     1.0000 0.71355  0.82311  0.34577  Biso   1.000  Mo
  Mo46     1.0000 0.90414  0.05730  0.37006  Biso   1.000  Mo
  Mo47     1.0000 0.56662  0.82709  0.37811  Biso   1.000  Mo
  Mo48     1.0000 0.70872  0.06931  0.50301  Biso   1.000  Mo
  Mo49     1.0000 0.77178  0.05839  0.29187  Biso   1.000  Mo
  Mo50     1.0000 0.86510  0.93444  0.48087  Biso   1.000  Mo
  Mo51     1.0000 0.58917  0.18331  0.36693  Biso   1.000  Mo
  Mo52     1.0000 0.82855  0.82752  0.42463  Biso   1.000  Mo
  Mo53     1.0000 0.87219  0.06320  0.47633  Biso   1.000  Mo
  Mo54     1.0000 0.85157  0.16661  0.41184  Biso   1.000  Mo
  Sr3      1.0000 0.63825  0.00341  0.38273  Biso   1.000  Sr
  P13      1.0000 0.75390  0.07217  0.39894  Biso   1.000  P
  P14      1.0000 0.74491  0.92714  0.40426  Biso   1.000  P
  P15      1.0000 0.61584  0.90679  0.30540  Biso   1.000  P
  P16      1.0000 0.58410  0.10206  0.44663  Biso   1.000  P
  P17      1.0000 0.62830  0.09412  0.29923  Biso   1.000  P
  P18      1.0000 0.57140  0.91294  0.45223  Biso   1.000  P
  O107     1.0000 0.90600  0.99250  0.37410  Biso   1.000  O
  O108     1.0000 0.76200  0.99460  0.28950  Biso   1.000  O
  O109     1.0000 0.69680  0.00570  0.50580  Biso   1.000  O
  O110     1.0000 0.61790  0.08000  0.48520  Biso   1.000  O
  O111     1.0000 0.51690  0.87780  0.36840  Biso   1.000  O
  O112     1.0000 0.70210  0.94770  0.43600  Biso   1.000  O
  O113     1.0000 0.87460  0.99850  0.47870  Biso   1.000  O
  O114     1.0000 0.84050  0.93070  0.32800  Biso   1.000  O
  O115     1.0000 0.92380  0.92580  0.43570  Biso   1.000  O
  O116     1.0000 0.55980  0.94840  0.41690  Biso   1.000  O
  O117     1.0000 0.70050  0.87280  0.49230  Biso   1.000  O
  O118     1.0000 0.86050  0.13130  0.45860  Biso   1.000  O
  O119     1.0000 0.63500  0.86740  0.33710  Biso   1.000  O
  O120     1.0000 0.62360  0.13870  0.42430  Biso   1.000  O
  O121     1.0000 0.72510  0.94420  0.35920  Biso   1.000  O
  O122     1.0000 0.71680  0.13550  0.48340  Biso   1.000  O
  O123     1.0000 0.59390  0.06100  0.32580  Biso   1.000  O
  O124     1.0000 0.56810  0.88920  0.27200  Biso   1.000  O
  O125     1.0000 0.67900  0.07070  0.27620  Biso   1.000  O
  O126     1.0000 0.81860  0.05580  0.41080  Biso   1.000  O
  O127     1.0000 0.79390  0.06400  0.49990  Biso   1.000  O
  O128     1.0000 0.77800  0.79560  0.37390  Biso   1.000  O
  O129     1.0000 0.73960  0.87270  0.40570  Biso   1.000  O
  O130     1.0000 0.75580  0.12650  0.39710  Biso   1.000  O
  O131     1.0000 0.81130  0.94000  0.41530  Biso   1.000  O
  O132     1.0000 0.46180  0.93550  0.31010  Biso   1.000  O
  O133     1.0000 0.58770  0.94480  0.33210  Biso   1.000  O
  O134     1.0000 0.78730  0.94100  0.50480  Biso   1.000  O
  O135     1.0000 0.78080  0.20160  0.44020  Biso   1.000  O
  O136     1.0000 0.58510  0.11740  0.26460  Biso   1.000  O
  O137     1.0000 0.65510  0.80670  0.39400  Biso   1.000  O
  O138     1.0000 0.75320  0.86440  0.31470  Biso   1.000  O
  O139     1.0000 0.67950  0.19630  0.38100  Biso   1.000  O
  O140     1.0000 0.88440  0.12600  0.37550  Biso   1.000  O
  O141     1.0000 0.70930  0.05710  0.43160  Biso   1.000  O
  O142     1.0000 0.51140  0.00720  0.36010  Biso   1.000  O
  O143     1.0000 0.84460  0.86620  0.46860  Biso   1.000  O
  O144     1.0000 0.75360  0.80030  0.45370  Biso   1.000  O
  O145     1.0000 0.73140  0.05340  0.35540  Biso   1.000  O
  O146     1.0000 0.86770  0.86090  0.38540  Biso   1.000  O
  O147     1.0000 0.67210  0.92510  0.28260  Biso   1.000  O
  O148     1.0000 0.60810  0.87220  0.43240  Biso   1.000  O
  O149     1.0000 0.56650  0.06590  0.41380  Biso   1.000  O
  O150     1.0000 0.80390  0.19760  0.35960  Biso   1.000  O
  O151     1.0000 0.93150  0.06330  0.43020  Biso   1.000  O
  O152     1.0000 0.76940  0.12730  0.30640  Biso   1.000  O
  O153     1.0000 0.65290  0.13500  0.32800  Biso   1.000  O
  O154     1.0000 0.84740  0.05490  0.32220  Biso   1.000  O
  O155     1.0000 0.52720  0.12690  0.46290  Biso   1.000  O
  O156     1.0000 0.46650  0.07630  0.30550  Biso   1.000  O
  O157     1.0000 0.60870  0.93450  0.48920  Biso   1.000  O
  O158     1.0000 0.53230  0.13550  0.35960  Biso   1.000  O
  O159     1.0000 0.51020  0.89550  0.46690  Biso   1.000  O
  Mo55     1.0000 0.31912  0.82856  0.04463  Biso   1.000  Mo
  Mo56     1.0000 0.29909  0.94152  0.99364  Biso   1.000  Mo
  Mo57     1.0000 0.23604  0.93063  0.20353  Biso   1.000  Mo
  Mo58     1.0000 0.10390  0.92852  0.12469  Biso   1.000  Mo
  Mo59     1.0000 0.50386  0.94382  0.13881  Biso   1.000  Mo
  Mo60     1.0000 0.29530  0.17829  0.05652  Biso   1.000  Mo
  Mo61     1.0000 0.26412  0.17322  0.16569  Biso   1.000  Mo
  Mo62     1.0000 0.49898  0.07323  0.14343  Biso   1.000  Mo
  Mo63     1.0000 0.28645  0.82311  0.15423  Biso   1.000  Mo
  Mo64     1.0000 0.09586  0.05730  0.12994  Biso   1.000  Mo
  Mo65     1.0000 0.43338  0.82709  0.12189  Biso   1.000  Mo
  Mo66     1.0000 0.29128  0.06931  0.99699  Biso   1.000  Mo
  Mo67     1.0000 0.22822  0.05839  0.20813  Biso   1.000  Mo
  Mo68     1.0000 0.13490  0.93444  0.01913  Biso   1.000  Mo
  Mo69     1.0000 0.41083  0.18331  0.13307  Biso   1.000  Mo
  Mo70     1.0000 0.17145  0.82752  0.07537  Biso   1.000  Mo
  Mo71     1.0000 0.12781  0.06320  0.02367  Biso   1.000  Mo
  Mo72     1.0000 0.14843  0.16661  0.08816  Biso   1.000  Mo
  Sr4      1.0000 0.36175  0.00341  0.11727  Biso   1.000  Sr
  P19      1.0000 0.24610  0.07217  0.10106  Biso   1.000  P
  P20      1.0000 0.25509  0.92714  0.09574  Biso   1.000  P
  P21      1.0000 0.38416  0.90679  0.19460  Biso   1.000  P
  P22      1.0000 0.41590  0.10206  0.05337  Biso   1.000  P
  P23      1.0000 0.37170  0.09412  0.20077  Biso   1.000  P
  P24      1.0000 0.42860  0.91294  0.04777  Biso   1.000  P
  O160     1.0000 0.09400  0.99250  0.12590  Biso   1.000  O
  O161     1.0000 0.23800  0.99460  0.21050  Biso   1.000  O
  O162     1.0000 0.30320  0.00570  0.99420  Biso   1.000  O
  O163     1.0000 0.38210  0.08000  0.01480  Biso   1.000  O
  O164     1.0000 0.48310  0.87780  0.13160  Biso   1.000  O
  O165     1.0000 0.29790  0.94770  0.06400  Biso   1.000  O
  O166     1.0000 0.12540  0.99850  0.02130  Biso   1.000  O
  O167     1.0000 0.15950  0.93070  0.17200  Biso   1.000  O
  O168     1.0000 0.07620  0.92580  0.06430  Biso   1.000  O
  O169     1.0000 0.44020  0.94840  0.08310  Biso   1.000  O
  O170     1.0000 0.29950  0.87280  0.00770  Biso   1.000  O
  O171     1.0000 0.13950  0.13130  0.04140  Biso   1.000  O
  O172     1.0000 0.36500  0.86740  0.16290  Biso   1.000  O
  O173     1.0000 0.37640  0.13870  0.07570  Biso   1.000  O
  O174     1.0000 0.27490  0.94420  0.14080  Biso   1.000  O
  O175     1.0000 0.28320  0.13550  0.01660  Biso   1.000  O
  O176     1.0000 0.40610  0.06100  0.17420  Biso   1.000  O
  O177     1.0000 0.43190  0.88920  0.22800  Biso   1.000  O
  O178     1.0000 0.32100  0.07070  0.22380  Biso   1.000  O
  O179     1.0000 0.18140  0.05580  0.08920  Biso   1.000  O
  O180     1.0000 0.20610  0.06400  0.00010  Biso   1.000  O
  O181     1.0000 0.22200  0.79560  0.12610  Biso   1.000  O
  O182     1.0000 0.26040  0.87270  0.09430  Biso   1.000  O
  O183     1.0000 0.24420  0.12650  0.10290  Biso   1.000  O
  O184     1.0000 0.18870  0.94000  0.08470  Biso   1.000  O
  O185     1.0000 0.53820  0.93550  0.18990  Biso   1.000  O
  O186     1.0000 0.41230  0.94480  0.16790  Biso   1.000  O
  O187     1.0000 0.21270  0.94100  0.99520  Biso   1.000  O
  O188     1.0000 0.21920  0.20160  0.05980  Biso   1.000  O
  O189     1.0000 0.41490  0.11740  0.23540  Biso   1.000  O
  O190     1.0000 0.34490  0.80670  0.10600  Biso   1.000  O
  O191     1.0000 0.24680  0.86440  0.18530  Biso   1.000  O
  O192     1.0000 0.32050  0.19630  0.11900  Biso   1.000  O
  O193     1.0000 0.11560  0.12600  0.12450  Biso   1.000  O
  O194     1.0000 0.29070  0.05710  0.06840  Biso   1.000  O
  O195     1.0000 0.48860  0.00720  0.13990  Biso   1.000  O
  O196     1.0000 0.15540  0.86620  0.03140  Biso   1.000  O
  O197     1.0000 0.24640  0.80030  0.04630  Biso   1.000  O
  O198     1.0000 0.26860  0.05340  0.14460  Biso   1.000  O
  O199     1.0000 0.13230  0.86090  0.11460  Biso   1.000  O
  O200     1.0000 0.32790  0.92510  0.21740  Biso   1.000  O
  O201     1.0000 0.39190  0.87220  0.06760  Biso   1.000  O
  O202     1.0000 0.43350  0.06590  0.08620  Biso   1.000  O
  O203     1.0000 0.19610  0.19760  0.14040  Biso   1.000  O
  O204     1.0000 0.06850  0.06330  0.06980  Biso   1.000  O
  O205     1.0000 0.23060  0.12730  0.19360  Biso   1.000  O
  O206     1.0000 0.34710  0.13500  0.17200  Biso   1.000  O
  O207     1.0000 0.15260  0.05490  0.17780  Biso   1.000  O
  O208     1.0000 0.47280  0.12690  0.03710  Biso   1.000  O
  O209     1.0000 0.53350  0.07630  0.19450  Biso   1.000  O
  O210     1.0000 0.39130  0.93450  0.01080  Biso   1.000  O
  O211     1.0000 0.46770  0.13550  0.14040  Biso   1.000  O
  O212     1.0000 0.48980  0.89550  0.03310  Biso   1.000  O
  Zn3      1.0000 0.50000  0.08397  0.25000  Biso   1.000  Zn
  Zn4      1.0000 0.50000  0.92737  0.25000  Biso   1.000  Zn
  Mo73     1.0000 0.81912  0.67144  0.54463  Biso   1.000  Mo
  Mo74     1.0000 0.79909  0.55848  0.49364  Biso   1.000  Mo
  Mo75     1.0000 0.73604  0.56937  0.70353  Biso   1.000  Mo
  Mo76     1.0000 0.60390  0.57148  0.62469  Biso   1.000  Mo
  Mo77     1.0000 0.00386  0.55618  0.63881  Biso   1.000  Mo
  Mo78     1.0000 0.79530  0.32171  0.55652  Biso   1.000  Mo
  Mo79     1.0000 0.76412  0.32678  0.66569  Biso   1.000  Mo
  Mo80     1.0000 0.99898  0.42677  0.64343  Biso   1.000  Mo
  Mo81     1.0000 0.78645  0.67689  0.65423  Biso   1.000  Mo
  Mo82     1.0000 0.59586  0.44270  0.62994  Biso   1.000  Mo
  Mo83     1.0000 0.93338  0.67291  0.62189  Biso   1.000  Mo
  Mo84     1.0000 0.79128  0.43069  0.49699  Biso   1.000  Mo
  Mo85     1.0000 0.72822  0.44161  0.70813  Biso   1.000  Mo
  Mo86     1.0000 0.63490  0.56556  0.51913  Biso   1.000  Mo
  Mo87     1.0000 0.91083  0.31669  0.63307  Biso   1.000  Mo
  Mo88     1.0000 0.67145  0.67248  0.57537  Biso   1.000  Mo
  Mo89     1.0000 0.62781  0.43680  0.52367  Biso   1.000  Mo
  Mo90     1.0000 0.64843  0.33339  0.58816  Biso   1.000  Mo
  Sr5      1.0000 0.86175  0.49659  0.61727  Biso   1.000  Sr
  P25      1.0000 0.74610  0.42783  0.60106  Biso   1.000  P
  P26      1.0000 0.75509  0.57286  0.59574  Biso   1.000  P
  P27      1.0000 0.88416  0.59321  0.69460  Biso   1.000  P
  P28      1.0000 0.91590  0.39794  0.55337  Biso   1.000  P
  P29      1.0000 0.87170  0.40588  0.70077  Biso   1.000  P
  P30      1.0000 0.92860  0.58706  0.54777  Biso   1.000  P
  O213     1.0000 0.59400  0.50750  0.62590  Biso   1.000  O
  O214     1.0000 0.73800  0.50540  0.71050  Biso   1.000  O
  O215     1.0000 0.80320  0.49430  0.49420  Biso   1.000  O
  O216     1.0000 0.88210  0.42000  0.51480  Biso   1.000  O
  O217     1.0000 0.98310  0.62220  0.63160  Biso   1.000  O
  O218     1.0000 0.79790  0.55230  0.56400  Biso   1.000  O
  O219     1.0000 0.62540  0.50150  0.52130  Biso   1.000  O
  O220     1.0000 0.65950  0.56930  0.67200  Biso   1.000  O
  O221     1.0000 0.57620  0.57420  0.56430  Biso   1.000  O
  O222     1.0000 0.94020  0.55160  0.58310  Biso   1.000  O
  O223     1.0000 0.79950  0.62720  0.50770  Biso   1.000  O
  O224     1.0000 0.63950  0.36870  0.54140  Biso   1.000  O
  O225     1.0000 0.86500  0.63260  0.66290  Biso   1.000  O
  O226     1.0000 0.87640  0.36130  0.57570  Biso   1.000  O
  O227     1.0000 0.77490  0.55580  0.64080  Biso   1.000  O
  O228     1.0000 0.78320  0.36450  0.51660  Biso   1.000  O
  O229     1.0000 0.90610  0.43900  0.67420  Biso   1.000  O
  O230     1.0000 0.93190  0.61080  0.72800  Biso   1.000  O
  O231     1.0000 0.82100  0.42930  0.72380  Biso   1.000  O
  O232     1.0000 0.68140  0.44420  0.58920  Biso   1.000  O
  O233     1.0000 0.70610  0.43600  0.50010  Biso   1.000  O
  O234     1.0000 0.72200  0.70440  0.62610  Biso   1.000  O
  O235     1.0000 0.76040  0.62730  0.59430  Biso   1.000  O
  O236     1.0000 0.74420  0.37350  0.60290  Biso   1.000  O
  O237     1.0000 0.68870  0.56000  0.58470  Biso   1.000  O
  O238     1.0000 0.03820  0.56450  0.68990  Biso   1.000  O
  O239     1.0000 0.91230  0.55520  0.66790  Biso   1.000  O
  O240     1.0000 0.71270  0.55900  0.49520  Biso   1.000  O
  O241     1.0000 0.71920  0.29840  0.55980  Biso   1.000  O
  O242     1.0000 0.91490  0.38260  0.73540  Biso   1.000  O
  O243     1.0000 0.84490  0.69330  0.60600  Biso   1.000  O
  O244     1.0000 0.74680  0.63560  0.68530  Biso   1.000  O
  O245     1.0000 0.82050  0.30370  0.61900  Biso   1.000  O
  O246     1.0000 0.61560  0.37400  0.62450  Biso   1.000  O
  O247     1.0000 0.79070  0.44290  0.56840  Biso   1.000  O
  O248     1.0000 0.98860  0.49280  0.63990  Biso   1.000  O
  O249     1.0000 0.65540  0.63380  0.53140  Biso   1.000  O
  O250     1.0000 0.74640  0.69970  0.54630  Biso   1.000  O
  O251     1.0000 0.76860  0.44660  0.64460  Biso   1.000  O
  O252     1.0000 0.63230  0.63910  0.61460  Biso   1.000  O
  O253     1.0000 0.82790  0.57490  0.71740  Biso   1.000  O
  O254     1.0000 0.89190  0.62780  0.56760  Biso   1.000  O
  O255     1.0000 0.93350  0.43410  0.58620  Biso   1.000  O
  O256     1.0000 0.69610  0.30240  0.64040  Biso   1.000  O
  O257     1.0000 0.56850  0.43670  0.56980  Biso   1.000  O
  O258     1.0000 0.73060  0.37270  0.69360  Biso   1.000  O
  O259     1.0000 0.84710  0.36500  0.67200  Biso   1.000  O
  O260     1.0000 0.65260  0.44510  0.67780  Biso   1.000  O
  O261     1.0000 0.97280  0.37310  0.53710  Biso   1.000  O
  O262     1.0000 0.03350  0.42370  0.69450  Biso   1.000  O
  O263     1.0000 0.89130  0.56550  0.51080  Biso   1.000  O
  O264     1.0000 0.96770  0.36450  0.64040  Biso   1.000  O
  O265     1.0000 0.98980  0.60450  0.53310  Biso   1.000  O
  Mo91     1.0000 0.18088  0.67144  0.95537  Biso   1.000  Mo
  Mo92     1.0000 0.20091  0.55848  0.00636  Biso   1.000  Mo
  Mo93     1.0000 0.26396  0.56937  0.79647  Biso   1.000  Mo
  Mo94     1.0000 0.39610  0.57148  0.87531  Biso   1.000  Mo
  Mo95     1.0000 0.99614  0.55618  0.86119  Biso   1.000  Mo
  Mo96     1.0000 0.20470  0.32171  0.94348  Biso   1.000  Mo
  Mo97     1.0000 0.23588  0.32678  0.83431  Biso   1.000  Mo
  Mo98     1.0000 0.00102  0.42677  0.85657  Biso   1.000  Mo
  Mo99     1.0000 0.21355  0.67689  0.84577  Biso   1.000  Mo
  Mo100    1.0000 0.40414  0.44270  0.87006  Biso   1.000  Mo
  Mo101    1.0000 0.06662  0.67291  0.87811  Biso   1.000  Mo
  Mo102    1.0000 0.20872  0.43069  0.00301  Biso   1.000  Mo
  Mo103    1.0000 0.27178  0.44161  0.79187  Biso   1.000  Mo
  Mo104    1.0000 0.36510  0.56556  0.98087  Biso   1.000  Mo
  Mo105    1.0000 0.08917  0.31669  0.86693  Biso   1.000  Mo
  Mo106    1.0000 0.32855  0.67248  0.92463  Biso   1.000  Mo
  Mo107    1.0000 0.37219  0.43680  0.97633  Biso   1.000  Mo
  Mo108    1.0000 0.35157  0.33339  0.91184  Biso   1.000  Mo
  Sr6      1.0000 0.13825  0.49659  0.88273  Biso   1.000  Sr
  P31      1.0000 0.25390  0.42783  0.89894  Biso   1.000  P
  P32      1.0000 0.24491  0.57286  0.90426  Biso   1.000  P
  P33      1.0000 0.11584  0.59321  0.80540  Biso   1.000  P
  P34      1.0000 0.08410  0.39794  0.94663  Biso   1.000  P
  P35      1.0000 0.12830  0.40588  0.79923  Biso   1.000  P
  P36      1.0000 0.07140  0.58706  0.95223  Biso   1.000  P
  O266     1.0000 0.40600  0.50750  0.87410  Biso   1.000  O
  O267     1.0000 0.26200  0.50540  0.78950  Biso   1.000  O
  O268     1.0000 0.19680  0.49430  0.00580  Biso   1.000  O
  O269     1.0000 0.11790  0.42000  0.98520  Biso   1.000  O
  O270     1.0000 0.01690  0.62220  0.86840  Biso   1.000  O
  O271     1.0000 0.20210  0.55230  0.93600  Biso   1.000  O
  O272     1.0000 0.37460  0.50150  0.97870  Biso   1.000  O
  O273     1.0000 0.34050  0.56930  0.82800  Biso   1.000  O
  O274     1.0000 0.42380  0.57420  0.93570  Biso   1.000  O
  O275     1.0000 0.05980  0.55160  0.91690  Biso   1.000  O
  O276     1.0000 0.20050  0.62720  0.99230  Biso   1.000  O
  O277     1.0000 0.36050  0.36870  0.95860  Biso   1.000  O
  O278     1.0000 0.13500  0.63260  0.83710  Biso   1.000  O
  O279     1.0000 0.12360  0.36130  0.92430  Biso   1.000  O
  O280     1.0000 0.22510  0.55580  0.85920  Biso   1.000  O
  O281     1.0000 0.21680  0.36450  0.98340  Biso   1.000  O
  O282     1.0000 0.09390  0.43900  0.82580  Biso   1.000  O
  O283     1.0000 0.06810  0.61080  0.77200  Biso   1.000  O
  O284     1.0000 0.17900  0.42930  0.77620  Biso   1.000  O
  O285     1.0000 0.31860  0.44420  0.91080  Biso   1.000  O
  O286     1.0000 0.29390  0.43600  0.99990  Biso   1.000  O
  O287     1.0000 0.27800  0.70440  0.87390  Biso   1.000  O
  O288     1.0000 0.23960  0.62730  0.90570  Biso   1.000  O
  O289     1.0000 0.25580  0.37350  0.89710  Biso   1.000  O
  O290     1.0000 0.31130  0.56000  0.91530  Biso   1.000  O
  O291     1.0000 0.96180  0.56450  0.81010  Biso   1.000  O
  O292     1.0000 0.08770  0.55520  0.83210  Biso   1.000  O
  O293     1.0000 0.28730  0.55900  0.00480  Biso   1.000  O
  O294     1.0000 0.28080  0.29840  0.94020  Biso   1.000  O
  O295     1.0000 0.08510  0.38260  0.76460  Biso   1.000  O
  O296     1.0000 0.15510  0.69330  0.89400  Biso   1.000  O
  O297     1.0000 0.25320  0.63560  0.81470  Biso   1.000  O
  O298     1.0000 0.17950  0.30370  0.88100  Biso   1.000  O
  O299     1.0000 0.38440  0.37400  0.87550  Biso   1.000  O
  O300     1.0000 0.20930  0.44290  0.93160  Biso   1.000  O
  O301     1.0000 0.01140  0.49280  0.86010  Biso   1.000  O
  O302     1.0000 0.34460  0.63380  0.96860  Biso   1.000  O
  O303     1.0000 0.25360  0.69970  0.95370  Biso   1.000  O
  O304     1.0000 0.23140  0.44660  0.85540  Biso   1.000  O
  O305     1.0000 0.36770  0.63910  0.88540  Biso   1.000  O
  O306     1.0000 0.17210  0.57490  0.78260  Biso   1.000  O
  O307     1.0000 0.10810  0.62780  0.93240  Biso   1.000  O
  O308     1.0000 0.06650  0.43410  0.91380  Biso   1.000  O
  O309     1.0000 0.30390  0.30240  0.85960  Biso   1.000  O
  O310     1.0000 0.43150  0.43670  0.93020  Biso   1.000  O
  O311     1.0000 0.26940  0.37270  0.80640  Biso   1.000  O
  O312     1.0000 0.15290  0.36500  0.82800  Biso   1.000  O
  O313     1.0000 0.34740  0.44510  0.82220  Biso   1.000  O
  O314     1.0000 0.02720  0.37310  0.96290  Biso   1.000  O
  O315     1.0000 0.96650  0.42370  0.80550  Biso   1.000  O
  O316     1.0000 0.10870  0.56550  0.98920  Biso   1.000  O
  O317     1.0000 0.03230  0.36450  0.85960  Biso   1.000  O
  O318     1.0000 0.01020  0.60450  0.96690  Biso   1.000  O
  Zn5      1.0000 0.00000  0.41603  0.75000  Biso   1.000  Zn
  Zn6      1.0000 0.00000  0.57263  0.75000  Biso   1.000  Zn
  Mo109    1.0000 0.31912  0.17144  0.54463  Biso   1.000  Mo
  Mo110    1.0000 0.29909  0.05848  0.49364  Biso   1.000  Mo
  Mo111    1.0000 0.23604  0.06937  0.70353  Biso   1.000  Mo
  Mo112    1.0000 0.10390  0.07148  0.62469  Biso   1.000  Mo
  Mo113    1.0000 0.50386  0.05618  0.63881  Biso   1.000  Mo
  Mo114    1.0000 0.29530  0.82171  0.55652  Biso   1.000  Mo
  Mo115    1.0000 0.26412  0.82678  0.66569  Biso   1.000  Mo
  Mo116    1.0000 0.49898  0.92677  0.64343  Biso   1.000  Mo
  Mo117    1.0000 0.28645  0.17689  0.65423  Biso   1.000  Mo
  Mo118    1.0000 0.09586  0.94270  0.62994  Biso   1.000  Mo
  Mo119    1.0000 0.43338  0.17291  0.62189  Biso   1.000  Mo
  Mo120    1.0000 0.29128  0.93069  0.49699  Biso   1.000  Mo
  Mo121    1.0000 0.22822  0.94161  0.70813  Biso   1.000  Mo
  Mo122    1.0000 0.13490  0.06556  0.51913  Biso   1.000  Mo
  Mo123    1.0000 0.41083  0.81669  0.63307  Biso   1.000  Mo
  Mo124    1.0000 0.17145  0.17248  0.57537  Biso   1.000  Mo
  Mo125    1.0000 0.12781  0.93680  0.52367  Biso   1.000  Mo
  Mo126    1.0000 0.14843  0.83339  0.58816  Biso   1.000  Mo
  Sr7      1.0000 0.36175  0.99659  0.61727  Biso   1.000  Sr
  P37      1.0000 0.24610  0.92783  0.60106  Biso   1.000  P
  P38      1.0000 0.25509  0.07286  0.59574  Biso   1.000  P
  P39      1.0000 0.38416  0.09321  0.69460  Biso   1.000  P
  P40      1.0000 0.41590  0.89794  0.55337  Biso   1.000  P
  P41      1.0000 0.37170  0.90588  0.70077  Biso   1.000  P
  P42      1.0000 0.42860  0.08706  0.54777  Biso   1.000  P
  O319     1.0000 0.09400  0.00750  0.62590  Biso   1.000  O
  O320     1.0000 0.23800  0.00540  0.71050  Biso   1.000  O
  O321     1.0000 0.30320  0.99430  0.49420  Biso   1.000  O
  O322     1.0000 0.38210  0.92000  0.51480  Biso   1.000  O
  O323     1.0000 0.48310  0.12220  0.63160  Biso   1.000  O
  O324     1.0000 0.29790  0.05230  0.56400  Biso   1.000  O
  O325     1.0000 0.12540  0.00150  0.52130  Biso   1.000  O
  O326     1.0000 0.15950  0.06930  0.67200  Biso   1.000  O
  O327     1.0000 0.07620  0.07420  0.56430  Biso   1.000  O
  O328     1.0000 0.44020  0.05160  0.58310  Biso   1.000  O
  O329     1.0000 0.29950  0.12720  0.50770  Biso   1.000  O
  O330     1.0000 0.13950  0.86870  0.54140  Biso   1.000  O
  O331     1.0000 0.36500  0.13260  0.66290  Biso   1.000  O
  O332     1.0000 0.37640  0.86130  0.57570  Biso   1.000  O
  O333     1.0000 0.27490  0.05580  0.64080  Biso   1.000  O
  O334     1.0000 0.28320  0.86450  0.51660  Biso   1.000  O
  O335     1.0000 0.40610  0.93900  0.67420  Biso   1.000  O
  O336     1.0000 0.43190  0.11080  0.72800  Biso   1.000  O
  O337     1.0000 0.32100  0.92930  0.72380  Biso   1.000  O
  O338     1.0000 0.18140  0.94420  0.58920  Biso   1.000  O
  O339     1.0000 0.20610  0.93600  0.50010  Biso   1.000  O
  O340     1.0000 0.22200  0.20440  0.62610  Biso   1.000  O
  O341     1.0000 0.26040  0.12730  0.59430  Biso   1.000  O
  O342     1.0000 0.24420  0.87350  0.60290  Biso   1.000  O
  O343     1.0000 0.18870  0.06000  0.58470  Biso   1.000  O
  O344     1.0000 0.53820  0.06450  0.68990  Biso   1.000  O
  O345     1.0000 0.41230  0.05520  0.66790  Biso   1.000  O
  O346     1.0000 0.21270  0.05900  0.49520  Biso   1.000  O
  O347     1.0000 0.21920  0.79840  0.55980  Biso   1.000  O
  O348     1.0000 0.41490  0.88260  0.73540  Biso   1.000  O
  O349     1.0000 0.34490  0.19330  0.60600  Biso   1.000  O
  O350     1.0000 0.24680  0.13560  0.68530  Biso   1.000  O
  O351     1.0000 0.32050  0.80370  0.61900  Biso   1.000  O
  O352     1.0000 0.11560  0.87400  0.62450  Biso   1.000  O
  O353     1.0000 0.29070  0.94290  0.56840  Biso   1.000  O
  O354     1.0000 0.48860  0.99280  0.63990  Biso   1.000  O
  O355     1.0000 0.15540  0.13380  0.53140  Biso   1.000  O
  O356     1.0000 0.24640  0.19970  0.54630  Biso   1.000  O
  O357     1.0000 0.26860  0.94660  0.64460  Biso   1.000  O
  O358     1.0000 0.13230  0.13910  0.61460  Biso   1.000  O
  O359     1.0000 0.32790  0.07490  0.71740  Biso   1.000  O
  O360     1.0000 0.39190  0.12780  0.56760  Biso   1.000  O
  O361     1.0000 0.43350  0.93410  0.58620  Biso   1.000  O
  O362     1.0000 0.19610  0.80240  0.64040  Biso   1.000  O
  O363     1.0000 0.06850  0.93670  0.56980  Biso   1.000  O
  O364     1.0000 0.23060  0.87270  0.69360  Biso   1.000  O
  O365     1.0000 0.34710  0.86500  0.67200  Biso   1.000  O
  O366     1.0000 0.15260  0.94510  0.67780  Biso   1.000  O
  O367     1.0000 0.47280  0.87310  0.53710  Biso   1.000  O
  O368     1.0000 0.53350  0.92370  0.69450  Biso   1.000  O
  O369     1.0000 0.39130  0.06550  0.51080  Biso   1.000  O
  O370     1.0000 0.46770  0.86450  0.64040  Biso   1.000  O
  O371     1.0000 0.48980  0.10450  0.53310  Biso   1.000  O
  Mo127    1.0000 0.68088  0.17144  0.95537  Biso   1.000  Mo
  Mo128    1.0000 0.70091  0.05848  0.00636  Biso   1.000  Mo
  Mo129    1.0000 0.76396  0.06937  0.79647  Biso   1.000  Mo
  Mo130    1.0000 0.89610  0.07148  0.87531  Biso   1.000  Mo
  Mo131    1.0000 0.49614  0.05618  0.86119  Biso   1.000  Mo
  Mo132    1.0000 0.70470  0.82171  0.94348  Biso   1.000  Mo
  Mo133    1.0000 0.73588  0.82678  0.83431  Biso   1.000  Mo
  Mo134    1.0000 0.50102  0.92677  0.85657  Biso   1.000  Mo
  Mo135    1.0000 0.71355  0.17689  0.84577  Biso   1.000  Mo
  Mo136    1.0000 0.90414  0.94270  0.87006  Biso   1.000  Mo
  Mo137    1.0000 0.56662  0.17291  0.87811  Biso   1.000  Mo
  Mo138    1.0000 0.70872  0.93069  0.00301  Biso   1.000  Mo
  Mo139    1.0000 0.77178  0.94161  0.79187  Biso   1.000  Mo
  Mo140    1.0000 0.86510  0.06556  0.98087  Biso   1.000  Mo
  Mo141    1.0000 0.58917  0.81669  0.86693  Biso   1.000  Mo
  Mo142    1.0000 0.82855  0.17248  0.92463  Biso   1.000  Mo
  Mo143    1.0000 0.87219  0.93680  0.97633  Biso   1.000  Mo
  Mo144    1.0000 0.85157  0.83339  0.91184  Biso   1.000  Mo
  Sr8      1.0000 0.63825  0.99659  0.88273  Biso   1.000  Sr
  P43      1.0000 0.75390  0.92783  0.89894  Biso   1.000  P
  P44      1.0000 0.74491  0.07286  0.90426  Biso   1.000  P
  P45      1.0000 0.61584  0.09321  0.80540  Biso   1.000  P
  P46      1.0000 0.58410  0.89794  0.94663  Biso   1.000  P
  P47      1.0000 0.62830  0.90588  0.79923  Biso   1.000  P
  P48      1.0000 0.57140  0.08706  0.95223  Biso   1.000  P
  O372     1.0000 0.90600  0.00750  0.87410  Biso   1.000  O
  O373     1.0000 0.76200  0.00540  0.78950  Biso   1.000  O
  O374     1.0000 0.69680  0.99430  0.00580  Biso   1.000  O
  O375     1.0000 0.61790  0.92000  0.98520  Biso   1.000  O
  O376     1.0000 0.51690  0.12220  0.86840  Biso   1.000  O
  O377     1.0000 0.70210  0.05230  0.93600  Biso   1.000  O
  O378     1.0000 0.87460  0.00150  0.97870  Biso   1.000  O
  O379     1.0000 0.84050  0.06930  0.82800  Biso   1.000  O
  O380     1.0000 0.92380  0.07420  0.93570  Biso   1.000  O
  O381     1.0000 0.55980  0.05160  0.91690  Biso   1.000  O
  O382     1.0000 0.70050  0.12720  0.99230  Biso   1.000  O
  O383     1.0000 0.86050  0.86870  0.95860  Biso   1.000  O
  O384     1.0000 0.63500  0.13260  0.83710  Biso   1.000  O
  O385     1.0000 0.62360  0.86130  0.92430  Biso   1.000  O
  O386     1.0000 0.72510  0.05580  0.85920  Biso   1.000  O
  O387     1.0000 0.71680  0.86450  0.98340  Biso   1.000  O
  O388     1.0000 0.59390  0.93900  0.82580  Biso   1.000  O
  O389     1.0000 0.56810  0.11080  0.77200  Biso   1.000  O
  O390     1.0000 0.67900  0.92930  0.77620  Biso   1.000  O
  O391     1.0000 0.81860  0.94420  0.91080  Biso   1.000  O
  O392     1.0000 0.79390  0.93600  0.99990  Biso   1.000  O
  O393     1.0000 0.77800  0.20440  0.87390  Biso   1.000  O
  O394     1.0000 0.73960  0.12730  0.90570  Biso   1.000  O
  O395     1.0000 0.75580  0.87350  0.89710  Biso   1.000  O
  O396     1.0000 0.81130  0.06000  0.91530  Biso   1.000  O
  O397     1.0000 0.46180  0.06450  0.81010  Biso   1.000  O
  O398     1.0000 0.58770  0.05520  0.83210  Biso   1.000  O
  O399     1.0000 0.78730  0.05900  0.00480  Biso   1.000  O
  O400     1.0000 0.78080  0.79840  0.94020  Biso   1.000  O
  O401     1.0000 0.58510  0.88260  0.76460  Biso   1.000  O
  O402     1.0000 0.65510  0.19330  0.89400  Biso   1.000  O
  O403     1.0000 0.75320  0.13560  0.81470  Biso   1.000  O
  O404     1.0000 0.67950  0.80370  0.88100  Biso   1.000  O
  O405     1.0000 0.88440  0.87400  0.87550  Biso   1.000  O
  O406     1.0000 0.70930  0.94290  0.93160  Biso   1.000  O
  O407     1.0000 0.51140  0.99280  0.86010  Biso   1.000  O
  O408     1.0000 0.84460  0.13380  0.96860  Biso   1.000  O
  O409     1.0000 0.75360  0.19970  0.95370  Biso   1.000  O
  O410     1.0000 0.73140  0.94660  0.85540  Biso   1.000  O
  O411     1.0000 0.86770  0.13910  0.88540  Biso   1.000  O
  O412     1.0000 0.67210  0.07490  0.78260  Biso   1.000  O
  O413     1.0000 0.60810  0.12780  0.93240  Biso   1.000  O
  O414     1.0000 0.56650  0.93410  0.91380  Biso   1.000  O
  O415     1.0000 0.80390  0.80240  0.85960  Biso   1.000  O
  O416     1.0000 0.93150  0.93670  0.93020  Biso   1.000  O
  O417     1.0000 0.76940  0.87270  0.80640  Biso   1.000  O
  O418     1.0000 0.65290  0.86500  0.82800  Biso   1.000  O
  O419     1.0000 0.84740  0.94510  0.82220  Biso   1.000  O
  O420     1.0000 0.52720  0.87310  0.96290  Biso   1.000  O
  O421     1.0000 0.46650  0.92370  0.80550  Biso   1.000  O
  O422     1.0000 0.60870  0.06550  0.98920  Biso   1.000  O
  O423     1.0000 0.53230  0.86450  0.85960  Biso   1.000  O
  O424     1.0000 0.51020  0.10450  0.96690  Biso   1.000  O
  Zn7      1.0000 0.50000  0.91603  0.75000  Biso   1.000  Zn
  Zn8      1.0000 0.50000  0.07263  0.75000  Biso   1.000  Zn
