data_image0
_cell_length_a       22.77
_cell_length_b       22.77
_cell_length_c       27.582
_cell_angle_alpha    90
_cell_angle_beta     90
_cell_angle_gamma    90

_symmetry_space_group_name_H-M    "P 1"
_symmetry_int_tables_number       1

loop_
  _symmetry_equiv_pos_as_xyz
  'x, y, z'

loop_
  _atom_site_label
  _atom_site_occupancy
  _atom_site_fract_x
  _atom_site_fract_y
  _atom_site_fract_z
  _atom_site_thermal_displace_type
  _atom_site_B_iso_or_equiv
  _atom_site_type_symbol
  C1       1.0000 0.69520  0.13750  0.25050  Biso   1.000  C
  H1       1.0000 0.69290  0.17020  0.27050  Biso   1.000  H
  C2       1.0000 0.64900  0.09800  0.25000  Biso   1.000  C
  H2       1.0000 0.61590  0.10400  0.26910  Biso   1.000  H
  C3       1.0000 0.65350  0.04850  0.21980  Biso   1.000  C
  H3       1.0000 0.62360  0.02060  0.21860  Biso   1.000  H
  C4       1.0000 0.70530  0.04210  0.19080  Biso   1.000  C
  C5       1.0000 0.74790  0.08400  0.19390  Biso   1.000  C
  H4       1.0000 0.78150  0.08020  0.17500  Biso   1.000  H
  C6       1.0000 0.71060  0.99180  0.15960  Biso   1.000  C
  C7       1.0000 0.69820  0.91300  0.12280  Biso   1.000  C
  C8       1.0000 0.67640  0.85810  0.10380  Biso   1.000  C
  C9       1.0000 0.70730  0.82640  0.06960  Biso   1.000  C
  H5       1.0000 0.74350  0.84010  0.05880  Biso   1.000  H
  C10      1.0000 0.63510  0.75510  0.06660  Biso   1.000  C
  H6       1.0000 0.62180  0.71940  0.05450  Biso   1.000  H
  C11      1.0000 0.60110  0.78550  0.10040  Biso   1.000  C
  H7       1.0000 0.56480  0.77130  0.11040  Biso   1.000  H
  C12      1.0000 0.62400  0.83880  0.11870  Biso   1.000  C
  H8       1.0000 0.60260  0.86040  0.14110  Biso   1.000  H
  N1       1.0000 0.74280  0.13010  0.22330  Biso   1.000  N
  N2       1.0000 0.75360  0.98990  0.12900  Biso   1.000  N
  N3       1.0000 0.74610  0.93670  0.10310  Biso   1.000  N
  H9       1.0000 0.76750  0.92290  0.08010  Biso   1.000  H
  N4       1.0000 0.67410  0.94580  0.15730  Biso   1.000  N
  N5       1.0000 0.68590  0.77630  0.05170  Biso   1.000  N
  C13      1.0000 0.30480  0.86250  0.25050  Biso   1.000  C
  H10      1.0000 0.30710  0.82980  0.27050  Biso   1.000  H
  C14      1.0000 0.35100  0.90200  0.25000  Biso   1.000  C
  H11      1.0000 0.38410  0.89600  0.26910  Biso   1.000  H
  C15      1.0000 0.34650  0.95150  0.21980  Biso   1.000  C
  H12      1.0000 0.37640  0.97940  0.21860  Biso   1.000  H
  C16      1.0000 0.29470  0.95790  0.19080  Biso   1.000  C
  C17      1.0000 0.25210  0.91600  0.19390  Biso   1.000  C
  H13      1.0000 0.21850  0.91980  0.17500  Biso   1.000  H
  C18      1.0000 0.28940  0.00820  0.15960  Biso   1.000  C
  C19      1.0000 0.30180  0.08700  0.12280  Biso   1.000  C
  C20      1.0000 0.32360  0.14190  0.10380  Biso   1.000  C
  C21      1.0000 0.29270  0.17360  0.06960  Biso   1.000  C
  H14      1.0000 0.25650  0.15990  0.05880  Biso   1.000  H
  C22      1.0000 0.36490  0.24490  0.06660  Biso   1.000  C
  H15      1.0000 0.37820  0.28060  0.05450  Biso   1.000  H
  C23      1.0000 0.39890  0.21450  0.10040  Biso   1.000  C
  H16      1.0000 0.43520  0.22870  0.11040  Biso   1.000  H
  C24      1.0000 0.37600  0.16120  0.11870  Biso   1.000  C
  H17      1.0000 0.39740  0.13960  0.14110  Biso   1.000  H
  N6       1.0000 0.25720  0.86990  0.22330  Biso   1.000  N
  N7       1.0000 0.24640  0.01010  0.12900  Biso   1.000  N
  N8       1.0000 0.25390  0.06330  0.10310  Biso   1.000  N
  H18      1.0000 0.23250  0.07710  0.08010  Biso   1.000  H
  N9       1.0000 0.32590  0.05420  0.15730  Biso   1.000  N
  N10      1.0000 0.31410  0.22370  0.05170  Biso   1.000  N
  C25      1.0000 0.13750  0.69520  0.74950  Biso   1.000  C
  H19      1.0000 0.17020  0.69290  0.72950  Biso   1.000  H
  C26      1.0000 0.09800  0.64900  0.75000  Biso   1.000  C
  H20      1.0000 0.10400  0.61590  0.73090  Biso   1.000  H
  C27      1.0000 0.04850  0.65350  0.78020  Biso   1.000  C
  H21      1.0000 0.02060  0.62360  0.78140  Biso   1.000  H
  C28      1.0000 0.04210  0.70530  0.80920  Biso   1.000  C
  C29      1.0000 0.08400  0.74790  0.80610  Biso   1.000  C
  H22      1.0000 0.08020  0.78150  0.82500  Biso   1.000  H
  C30      1.0000 0.99180  0.71060  0.84040  Biso   1.000  C
  C31      1.0000 0.91300  0.69820  0.87720  Biso   1.000  C
  C32      1.0000 0.85810  0.67640  0.89620  Biso   1.000  C
  C33      1.0000 0.82640  0.70730  0.93040  Biso   1.000  C
  H23      1.0000 0.84010  0.74350  0.94120  Biso   1.000  H
  C34      1.0000 0.75510  0.63510  0.93340  Biso   1.000  C
  H24      1.0000 0.71940  0.62180  0.94550  Biso   1.000  H
  C35      1.0000 0.78550  0.60110  0.89960  Biso   1.000  C
  H25      1.0000 0.77130  0.56480  0.88960  Biso   1.000  H
  C36      1.0000 0.83880  0.62400  0.88130  Biso   1.000  C
  H26      1.0000 0.86040  0.60260  0.85890  Biso   1.000  H
  N11      1.0000 0.13010  0.74280  0.77670  Biso   1.000  N
  N12      1.0000 0.98990  0.75360  0.87100  Biso   1.000  N
  N13      1.0000 0.93670  0.74610  0.89690  Biso   1.000  N
  H27      1.0000 0.92290  0.76750  0.91990  Biso   1.000  H
  N14      1.0000 0.94580  0.67410  0.84270  Biso   1.000  N
  N15      1.0000 0.77630  0.68590  0.94830  Biso   1.000  N
  C37      1.0000 0.86250  0.30480  0.74950  Biso   1.000  C
  H28      1.0000 0.82980  0.30710  0.72950  Biso   1.000  H
  C38      1.0000 0.90200  0.35100  0.75000  Biso   1.000  C
  H29      1.0000 0.89600  0.38410  0.73090  Biso   1.000  H
  C39      1.0000 0.95150  0.34650  0.78020  Biso   1.000  C
  H30      1.0000 0.97940  0.37640  0.78140  Biso   1.000  H
  C40      1.0000 0.95790  0.29470  0.80920  Biso   1.000  C
  C41      1.0000 0.91600  0.25210  0.80610  Biso   1.000  C
  H31      1.0000 0.91980  0.21850  0.82500  Biso   1.000  H
  C42      1.0000 0.00820  0.28940  0.84040  Biso   1.000  C
  C43      1.0000 0.08700  0.30180  0.87720  Biso   1.000  C
  C44      1.0000 0.14190  0.32360  0.89620  Biso   1.000  C
  C45      1.0000 0.17360  0.29270  0.93040  Biso   1.000  C
  H32      1.0000 0.15990  0.25650  0.94120  Biso   1.000  H
  C46      1.0000 0.24490  0.36490  0.93340  Biso   1.000  C
  H33      1.0000 0.28060  0.37820  0.94550  Biso   1.000  H
  C47      1.0000 0.21450  0.39890  0.89960  Biso   1.000  C
  H34      1.0000 0.22870  0.43520  0.88960  Biso   1.000  H
  C48      1.0000 0.16120  0.37600  0.88130  Biso   1.000  C
  H35      1.0000 0.13960  0.39740  0.85890  Biso   1.000  H
  N16      1.0000 0.86990  0.25720  0.77670  Biso   1.000  N
  N17      1.0000 0.01010  0.24640  0.87100  Biso   1.000  N
  N18      1.0000 0.06330  0.25390  0.89690  Biso   1.000  N
  H36      1.0000 0.07710  0.23250  0.91990  Biso   1.000  H
  N19      1.0000 0.05420  0.32590  0.84270  Biso   1.000  N
  N20      1.0000 0.22370  0.31410  0.94830  Biso   1.000  N
  C49      1.0000 0.30480  0.86250  0.74950  Biso   1.000  C
  H37      1.0000 0.30710  0.82980  0.72950  Biso   1.000  H
  C50      1.0000 0.35100  0.90200  0.75000  Biso   1.000  C
  H38      1.0000 0.38410  0.89600  0.73090  Biso   1.000  H
  C51      1.0000 0.34650  0.95150  0.78020  Biso   1.000  C
  H39      1.0000 0.37640  0.97940  0.78140  Biso   1.000  H
  C52      1.0000 0.29470  0.95790  0.80920  Biso   1.000  C
  C53      1.0000 0.25210  0.91600  0.80610  Biso   1.000  C
  H40      1.0000 0.21850  0.91980  0.82500  Biso   1.000  H
  C54      1.0000 0.28940  0.00820  0.84040  Biso   1.000  C
  C55      1.0000 0.30180  0.08700  0.87720  Biso   1.000  C
  C56      1.0000 0.32360  0.14190  0.89620  Biso   1.000  C
  C57      1.0000 0.29270  0.17360  0.93040  Biso   1.000  C
  H41      1.0000 0.25650  0.15990  0.94120  Biso   1.000  H
  C58      1.0000 0.36490  0.24490  0.93340  Biso   1.000  C
  H42      1.0000 0.37820  0.28060  0.94550  Biso   1.000  H
  C59      1.0000 0.39890  0.21450  0.89960  Biso   1.000  C
  H43      1.0000 0.43520  0.22870  0.88960  Biso   1.000  H
  C60      1.0000 0.37600  0.16120  0.88130  Biso   1.000  C
  H44      1.0000 0.39740  0.13960  0.85890  Biso   1.000  H
  N21      1.0000 0.25720  0.86990  0.77670  Biso   1.000  N
  N22      1.0000 0.24640  0.01010  0.87100  Biso   1.000  N
  N23      1.0000 0.25390  0.06330  0.89690  Biso   1.000  N
  H45      1.0000 0.23250  0.07710  0.91990  Biso   1.000  H
  N24      1.0000 0.32590  0.05420  0.84270  Biso   1.000  N
  N25      1.0000 0.31410  0.22370  0.94830  Biso   1.000  N
  C61      1.0000 0.69520  0.13750  0.74950  Biso   1.000  C
  H46      1.0000 0.69290  0.17020  0.72950  Biso   1.000  H
  C62      1.0000 0.64900  0.09800  0.75000  Biso   1.000  C
  H47      1.0000 0.61590  0.10400  0.73090  Biso   1.000  H
  C63      1.0000 0.65350  0.04850  0.78020  Biso   1.000  C
  H48      1.0000 0.62360  0.02060  0.78140  Biso   1.000  H
  C64      1.0000 0.70530  0.04210  0.80920  Biso   1.000  C
  C65      1.0000 0.74790  0.08400  0.80610  Biso   1.000  C
  H49      1.0000 0.78150  0.08020  0.82500  Biso   1.000  H
  C66      1.0000 0.71060  0.99180  0.84040  Biso   1.000  C
  C67      1.0000 0.69820  0.91300  0.87720  Biso   1.000  C
  C68      1.0000 0.67640  0.85810  0.89620  Biso   1.000  C
  C69      1.0000 0.70730  0.82640  0.93040  Biso   1.000  C
  H50      1.0000 0.74350  0.84010  0.94120  Biso   1.000  H
  C70      1.0000 0.63510  0.75510  0.93340  Biso   1.000  C
  H51      1.0000 0.62180  0.71940  0.94550  Biso   1.000  H
  C71      1.0000 0.60110  0.78550  0.89960  Biso   1.000  C
  H52      1.0000 0.56480  0.77130  0.88960  Biso   1.000  H
  C72      1.0000 0.62400  0.83880  0.88130  Biso   1.000  C
  H53      1.0000 0.60260  0.86040  0.85890  Biso   1.000  H
  N26      1.0000 0.74280  0.13010  0.77670  Biso   1.000  N
  N27      1.0000 0.75360  0.98990  0.87100  Biso   1.000  N
  N28      1.0000 0.74610  0.93670  0.89690  Biso   1.000  N
  H54      1.0000 0.76750  0.92290  0.91990  Biso   1.000  H
  N29      1.0000 0.67410  0.94580  0.84270  Biso   1.000  N
  N30      1.0000 0.68590  0.77630  0.94830  Biso   1.000  N
  C73      1.0000 0.86250  0.30480  0.25050  Biso   1.000  C
  H55      1.0000 0.82980  0.30710  0.27050  Biso   1.000  H
  C74      1.0000 0.90200  0.35100  0.25000  Biso   1.000  C
  H56      1.0000 0.89600  0.38410  0.26910  Biso   1.000  H
  C75      1.0000 0.95150  0.34650  0.21980  Biso   1.000  C
  H57      1.0000 0.97940  0.37640  0.21860  Biso   1.000  H
  C76      1.0000 0.95790  0.29470  0.19080  Biso   1.000  C
  C77      1.0000 0.91600  0.25210  0.19390  Biso   1.000  C
  H58      1.0000 0.91980  0.21850  0.17500  Biso   1.000  H
  C78      1.0000 0.00820  0.28940  0.15960  Biso   1.000  C
  C79      1.0000 0.08700  0.30180  0.12280  Biso   1.000  C
  C80      1.0000 0.14190  0.32360  0.10380  Biso   1.000  C
  C81      1.0000 0.17360  0.29270  0.06960  Biso   1.000  C
  H59      1.0000 0.15990  0.25650  0.05880  Biso   1.000  H
  C82      1.0000 0.24490  0.36490  0.06660  Biso   1.000  C
  H60      1.0000 0.28060  0.37820  0.05450  Biso   1.000  H
  C83      1.0000 0.21450  0.39890  0.10040  Biso   1.000  C
  H61      1.0000 0.22870  0.43520  0.11040  Biso   1.000  H
  C84      1.0000 0.16120  0.37600  0.11870  Biso   1.000  C
  H62      1.0000 0.13960  0.39740  0.14110  Biso   1.000  H
  N31      1.0000 0.86990  0.25720  0.22330  Biso   1.000  N
  N32      1.0000 0.01010  0.24640  0.12900  Biso   1.000  N
  N33      1.0000 0.06330  0.25390  0.10310  Biso   1.000  N
  H63      1.0000 0.07710  0.23250  0.08010  Biso   1.000  H
  N34      1.0000 0.05420  0.32590  0.15730  Biso   1.000  N
  N35      1.0000 0.22370  0.31410  0.05170  Biso   1.000  N
  C85      1.0000 0.13750  0.69520  0.25050  Biso   1.000  C
  H64      1.0000 0.17020  0.69290  0.27050  Biso   1.000  H
  C86      1.0000 0.09800  0.64900  0.25000  Biso   1.000  C
  H65      1.0000 0.10400  0.61590  0.26910  Biso   1.000  H
  C87      1.0000 0.04850  0.65350  0.21980  Biso   1.000  C
  H66      1.0000 0.02060  0.62360  0.21860  Biso   1.000  H
  C88      1.0000 0.04210  0.70530  0.19080  Biso   1.000  C
  C89      1.0000 0.08400  0.74790  0.19390  Biso   1.000  C
  H67      1.0000 0.08020  0.78150  0.17500  Biso   1.000  H
  C90      1.0000 0.99180  0.71060  0.15960  Biso   1.000  C
  C91      1.0000 0.91300  0.69820  0.12280  Biso   1.000  C
  C92      1.0000 0.85810  0.67640  0.10380  Biso   1.000  C
  C93      1.0000 0.82640  0.70730  0.06960  Biso   1.000  C
  H68      1.0000 0.84010  0.74350  0.05880  Biso   1.000  H
  C94      1.0000 0.75510  0.63510  0.06660  Biso   1.000  C
  H69      1.0000 0.71940  0.62180  0.05450  Biso   1.000  H
  C95      1.0000 0.78550  0.60110  0.10040  Biso   1.000  C
  H70      1.0000 0.77130  0.56480  0.11040  Biso   1.000  H
  C96      1.0000 0.83880  0.62400  0.11870  Biso   1.000  C
  H71      1.0000 0.86040  0.60260  0.14110  Biso   1.000  H
  N36      1.0000 0.13010  0.74280  0.22330  Biso   1.000  N
  N37      1.0000 0.98990  0.75360  0.12900  Biso   1.000  N
  N38      1.0000 0.93670  0.74610  0.10310  Biso   1.000  N
  H72      1.0000 0.92290  0.76750  0.08010  Biso   1.000  H
  N39      1.0000 0.94580  0.67410  0.15730  Biso   1.000  N
  N40      1.0000 0.77630  0.68590  0.05170  Biso   1.000  N
  Pd1      1.0000 0.80742  0.19258  0.22407  Biso   1.000  Pd
  C97      1.0000 0.84270  0.15730  0.32280  Biso   1.000  C
  H73      1.0000 0.81490  0.18510  0.33210  Biso   1.000  H
  C98      1.0000 0.87260  0.12740  0.35830  Biso   1.000  C
  H74      1.0000 0.86540  0.13460  0.39090  Biso   1.000  H
  C99      1.0000 0.91390  0.08610  0.34420  Biso   1.000  C
  H75      1.0000 0.93470  0.06530  0.36760  Biso   1.000  H
  C100     1.0000 0.92420  0.07580  0.29710  Biso   1.000  C
  C101     1.0000 0.89290  0.10710  0.26130  Biso   1.000  C
  H76      1.0000 0.90020  0.09980  0.22870  Biso   1.000  H
  C102     1.0000 0.96800  0.03200  0.28100  Biso   1.000  C
  C103     1.0000 0.72110  0.27890  0.18270  Biso   1.000  C
  H77      1.0000 0.71300  0.28700  0.21510  Biso   1.000  H
  C104     1.0000 0.69250  0.30750  0.14980  Biso   1.000  C
  H78      1.0000 0.66470  0.33530  0.15900  Biso   1.000  H
  C105     1.0000 0.70250  0.29750  0.10190  Biso   1.000  C
  H79      1.0000 0.68190  0.31810  0.07830  Biso   1.000  H
  C106     1.0000 0.74500  0.25500  0.08910  Biso   1.000  C
  C107     1.0000 0.77560  0.22440  0.12570  Biso   1.000  C
  H80      1.0000 0.80360  0.19640  0.11760  Biso   1.000  H
  C108     1.0000 0.75750  0.24250  0.03930  Biso   1.000  C
  N41      1.0000 0.85180  0.14820  0.27420  Biso   1.000  N
  N42      1.0000 0.97840  0.02160  0.23450  Biso   1.000  N
  N43      1.0000 0.76380  0.23620  0.17240  Biso   1.000  N
  N44      1.0000 0.79500  0.20500  0.02540  Biso   1.000  N
  Pd2      1.0000 0.19258  0.80742  0.22407  Biso   1.000  Pd
  C109     1.0000 0.15730  0.84270  0.32280  Biso   1.000  C
  H81      1.0000 0.18510  0.81490  0.33210  Biso   1.000  H
  C110     1.0000 0.12740  0.87260  0.35830  Biso   1.000  C
  H82      1.0000 0.13460  0.86540  0.39090  Biso   1.000  H
  C111     1.0000 0.08610  0.91390  0.34420  Biso   1.000  C
  H83      1.0000 0.06530  0.93470  0.36760  Biso   1.000  H
  C112     1.0000 0.07580  0.92420  0.29710  Biso   1.000  C
  C113     1.0000 0.10710  0.89290  0.26130  Biso   1.000  C
  H84      1.0000 0.09980  0.90020  0.22870  Biso   1.000  H
  C114     1.0000 0.03200  0.96800  0.28100  Biso   1.000  C
  C115     1.0000 0.27890  0.72110  0.18270  Biso   1.000  C
  H85      1.0000 0.28700  0.71300  0.21510  Biso   1.000  H
  C116     1.0000 0.30750  0.69250  0.14980  Biso   1.000  C
  H86      1.0000 0.33530  0.66470  0.15900  Biso   1.000  H
  C117     1.0000 0.29750  0.70250  0.10190  Biso   1.000  C
  H87      1.0000 0.31810  0.68190  0.07830  Biso   1.000  H
  C118     1.0000 0.25500  0.74500  0.08910  Biso   1.000  C
  C119     1.0000 0.22440  0.77560  0.12570  Biso   1.000  C
  H88      1.0000 0.19640  0.80360  0.11760  Biso   1.000  H
  C120     1.0000 0.24250  0.75750  0.03930  Biso   1.000  C
  N45      1.0000 0.14820  0.85180  0.27420  Biso   1.000  N
  N46      1.0000 0.02160  0.97840  0.23450  Biso   1.000  N
  N47      1.0000 0.23620  0.76380  0.17240  Biso   1.000  N
  N48      1.0000 0.20500  0.79500  0.02540  Biso   1.000  N
  Pd3      1.0000 0.19258  0.80742  0.77593  Biso   1.000  Pd
  C121     1.0000 0.15730  0.84270  0.67720  Biso   1.000  C
  H89      1.0000 0.18510  0.81490  0.66790  Biso   1.000  H
  C122     1.0000 0.12740  0.87260  0.64170  Biso   1.000  C
  H90      1.0000 0.13460  0.86540  0.60910  Biso   1.000  H
  C123     1.0000 0.08610  0.91390  0.65580  Biso   1.000  C
  H91      1.0000 0.06530  0.93470  0.63240  Biso   1.000  H
  C124     1.0000 0.07580  0.92420  0.70290  Biso   1.000  C
  C125     1.0000 0.10710  0.89290  0.73870  Biso   1.000  C
  H92      1.0000 0.09980  0.90020  0.77130  Biso   1.000  H
  C126     1.0000 0.03200  0.96800  0.71900  Biso   1.000  C
  C127     1.0000 0.27890  0.72110  0.81730  Biso   1.000  C
  H93      1.0000 0.28700  0.71300  0.78490  Biso   1.000  H
  C128     1.0000 0.30750  0.69250  0.85020  Biso   1.000  C
  H94      1.0000 0.33530  0.66470  0.84100  Biso   1.000  H
  C129     1.0000 0.29750  0.70250  0.89810  Biso   1.000  C
  H95      1.0000 0.31810  0.68190  0.92170  Biso   1.000  H
  C130     1.0000 0.25500  0.74500  0.91090  Biso   1.000  C
  C131     1.0000 0.22440  0.77560  0.87430  Biso   1.000  C
  H96      1.0000 0.19640  0.80360  0.88240  Biso   1.000  H
  C132     1.0000 0.24250  0.75750  0.96070  Biso   1.000  C
  N49      1.0000 0.14820  0.85180  0.72580  Biso   1.000  N
  N50      1.0000 0.02160  0.97840  0.76550  Biso   1.000  N
  N51      1.0000 0.23620  0.76380  0.82760  Biso   1.000  N
  N52      1.0000 0.20500  0.79500  0.97460  Biso   1.000  N
  Pd4      1.0000 0.80742  0.19258  0.77593  Biso   1.000  Pd
  C133     1.0000 0.84270  0.15730  0.67720  Biso   1.000  C
  H97      1.0000 0.81490  0.18510  0.66790  Biso   1.000  H
  C134     1.0000 0.87260  0.12740  0.64170  Biso   1.000  C
  H98      1.0000 0.86540  0.13460  0.60910  Biso   1.000  H
  C135     1.0000 0.91390  0.08610  0.65580  Biso   1.000  C
  H99      1.0000 0.93470  0.06530  0.63240  Biso   1.000  H
  C136     1.0000 0.92420  0.07580  0.70290  Biso   1.000  C
  C137     1.0000 0.89290  0.10710  0.73870  Biso   1.000  C
  H100     1.0000 0.90020  0.09980  0.77130  Biso   1.000  H
  C138     1.0000 0.96800  0.03200  0.71900  Biso   1.000  C
  C139     1.0000 0.72110  0.27890  0.81730  Biso   1.000  C
  H101     1.0000 0.71300  0.28700  0.78490  Biso   1.000  H
  C140     1.0000 0.69250  0.30750  0.85020  Biso   1.000  C
  H102     1.0000 0.66470  0.33530  0.84100  Biso   1.000  H
  C141     1.0000 0.70250  0.29750  0.89810  Biso   1.000  C
  H103     1.0000 0.68190  0.31810  0.92170  Biso   1.000  H
  C142     1.0000 0.74500  0.25500  0.91090  Biso   1.000  C
  C143     1.0000 0.77560  0.22440  0.87430  Biso   1.000  C
  H104     1.0000 0.80360  0.19640  0.88240  Biso   1.000  H
  C144     1.0000 0.75750  0.24250  0.96070  Biso   1.000  C
  N53      1.0000 0.85180  0.14820  0.72580  Biso   1.000  N
  N54      1.0000 0.97840  0.02160  0.76550  Biso   1.000  N
  N55      1.0000 0.76380  0.23620  0.82760  Biso   1.000  N
  N56      1.0000 0.79500  0.20500  0.97460  Biso   1.000  N
  Pd5      1.0000 0.73176  0.73176  0.00000  Biso   1.000  Pd
  Pd6      1.0000 0.26824  0.26824  0.00000  Biso   1.000  Pd
  N57      1.0000 0.00000  0.00000  0.31120  Biso   1.000  N
  N58      1.0000 0.00000  0.00000  0.68880  Biso   1.000  N
  N59      1.0000 0.73070  0.26930  0.00000  Biso   1.000  N
  N60      1.0000 0.26930  0.73070  0.00000  Biso   1.000  N
  C145     1.0000 0.36250  0.19520  0.75050  Biso   1.000  C
  H105     1.0000 0.32980  0.19290  0.77050  Biso   1.000  H
  C146     1.0000 0.40200  0.14900  0.75000  Biso   1.000  C
  H106     1.0000 0.39600  0.11590  0.76910  Biso   1.000  H
  C147     1.0000 0.45150  0.15350  0.71980  Biso   1.000  C
  H107     1.0000 0.47940  0.12360  0.71860  Biso   1.000  H
  C148     1.0000 0.45790  0.20530  0.69080  Biso   1.000  C
  C149     1.0000 0.41600  0.24790  0.69390  Biso   1.000  C
  H108     1.0000 0.41980  0.28150  0.67500  Biso   1.000  H
  C150     1.0000 0.50820  0.21060  0.65960  Biso   1.000  C
  C151     1.0000 0.58700  0.19820  0.62280  Biso   1.000  C
  C152     1.0000 0.64190  0.17640  0.60380  Biso   1.000  C
  C153     1.0000 0.67360  0.20730  0.56960  Biso   1.000  C
  H109     1.0000 0.65990  0.24350  0.55880  Biso   1.000  H
  C154     1.0000 0.74490  0.13510  0.56660  Biso   1.000  C
  H110     1.0000 0.78060  0.12180  0.55450  Biso   1.000  H
  C155     1.0000 0.71450  0.10110  0.60040  Biso   1.000  C
  H111     1.0000 0.72870  0.06480  0.61040  Biso   1.000  H
  C156     1.0000 0.66120  0.12400  0.61870  Biso   1.000  C
  H112     1.0000 0.63960  0.10260  0.64110  Biso   1.000  H
  N61      1.0000 0.36990  0.24280  0.72330  Biso   1.000  N
  N62      1.0000 0.51010  0.25360  0.62900  Biso   1.000  N
  N63      1.0000 0.56330  0.24610  0.60310  Biso   1.000  N
  H113     1.0000 0.57710  0.26750  0.58010  Biso   1.000  H
  N64      1.0000 0.55420  0.17410  0.65730  Biso   1.000  N
  N65      1.0000 0.72370  0.18590  0.55170  Biso   1.000  N
  C157     1.0000 0.63750  0.80480  0.75050  Biso   1.000  C
  H114     1.0000 0.67020  0.80710  0.77050  Biso   1.000  H
  C158     1.0000 0.59800  0.85100  0.75000  Biso   1.000  C
  H115     1.0000 0.60400  0.88410  0.76910  Biso   1.000  H
  C159     1.0000 0.54850  0.84650  0.71980  Biso   1.000  C
  H116     1.0000 0.52060  0.87640  0.71860  Biso   1.000  H
  C160     1.0000 0.54210  0.79470  0.69080  Biso   1.000  C
  C161     1.0000 0.58400  0.75210  0.69390  Biso   1.000  C
  H117     1.0000 0.58020  0.71850  0.67500  Biso   1.000  H
  C162     1.0000 0.49180  0.78940  0.65960  Biso   1.000  C
  C163     1.0000 0.41300  0.80180  0.62280  Biso   1.000  C
  C164     1.0000 0.35810  0.82360  0.60380  Biso   1.000  C
  C165     1.0000 0.32640  0.79270  0.56960  Biso   1.000  C
  H118     1.0000 0.34010  0.75650  0.55880  Biso   1.000  H
  C166     1.0000 0.25510  0.86490  0.56660  Biso   1.000  C
  H119     1.0000 0.21940  0.87820  0.55450  Biso   1.000  H
  C167     1.0000 0.28550  0.89890  0.60040  Biso   1.000  C
  H120     1.0000 0.27130  0.93520  0.61040  Biso   1.000  H
  C168     1.0000 0.33880  0.87600  0.61870  Biso   1.000  C
  H121     1.0000 0.36040  0.89740  0.64110  Biso   1.000  H
  N66      1.0000 0.63010  0.75720  0.72330  Biso   1.000  N
  N67      1.0000 0.48990  0.74640  0.62900  Biso   1.000  N
  N68      1.0000 0.43670  0.75390  0.60310  Biso   1.000  N
  H122     1.0000 0.42290  0.73250  0.58010  Biso   1.000  H
  N69      1.0000 0.44580  0.82590  0.65730  Biso   1.000  N
  N70      1.0000 0.27630  0.81410  0.55170  Biso   1.000  N
  C169     1.0000 0.80480  0.63750  0.24950  Biso   1.000  C
  H123     1.0000 0.80710  0.67020  0.22950  Biso   1.000  H
  C170     1.0000 0.85100  0.59800  0.25000  Biso   1.000  C
  H124     1.0000 0.88410  0.60400  0.23090  Biso   1.000  H
  C171     1.0000 0.84650  0.54850  0.28020  Biso   1.000  C
  H125     1.0000 0.87640  0.52060  0.28140  Biso   1.000  H
  C172     1.0000 0.79470  0.54210  0.30920  Biso   1.000  C
  C173     1.0000 0.75210  0.58400  0.30610  Biso   1.000  C
  H126     1.0000 0.71850  0.58020  0.32500  Biso   1.000  H
  C174     1.0000 0.78940  0.49180  0.34040  Biso   1.000  C
  C175     1.0000 0.80180  0.41300  0.37720  Biso   1.000  C
  C176     1.0000 0.82360  0.35810  0.39620  Biso   1.000  C
  C177     1.0000 0.79270  0.32640  0.43040  Biso   1.000  C
  H127     1.0000 0.75650  0.34010  0.44120  Biso   1.000  H
  C178     1.0000 0.86490  0.25510  0.43340  Biso   1.000  C
  H128     1.0000 0.87820  0.21940  0.44550  Biso   1.000  H
  C179     1.0000 0.89890  0.28550  0.39960  Biso   1.000  C
  H129     1.0000 0.93520  0.27130  0.38960  Biso   1.000  H
  C180     1.0000 0.87600  0.33880  0.38130  Biso   1.000  C
  H130     1.0000 0.89740  0.36040  0.35890  Biso   1.000  H
  N71      1.0000 0.75720  0.63010  0.27670  Biso   1.000  N
  N72      1.0000 0.74640  0.48990  0.37100  Biso   1.000  N
  N73      1.0000 0.75390  0.43670  0.39690  Biso   1.000  N
  H131     1.0000 0.73250  0.42290  0.41990  Biso   1.000  H
  N74      1.0000 0.82590  0.44580  0.34270  Biso   1.000  N
  N75      1.0000 0.81410  0.27630  0.44830  Biso   1.000  N
  C181     1.0000 0.19520  0.36250  0.24950  Biso   1.000  C
  H132     1.0000 0.19290  0.32980  0.22950  Biso   1.000  H
  C182     1.0000 0.14900  0.40200  0.25000  Biso   1.000  C
  H133     1.0000 0.11590  0.39600  0.23090  Biso   1.000  H
  C183     1.0000 0.15350  0.45150  0.28020  Biso   1.000  C
  H134     1.0000 0.12360  0.47940  0.28140  Biso   1.000  H
  C184     1.0000 0.20530  0.45790  0.30920  Biso   1.000  C
  C185     1.0000 0.24790  0.41600  0.30610  Biso   1.000  C
  H135     1.0000 0.28150  0.41980  0.32500  Biso   1.000  H
  C186     1.0000 0.21060  0.50820  0.34040  Biso   1.000  C
  C187     1.0000 0.19820  0.58700  0.37720  Biso   1.000  C
  C188     1.0000 0.17640  0.64190  0.39620  Biso   1.000  C
  C189     1.0000 0.20730  0.67360  0.43040  Biso   1.000  C
  H136     1.0000 0.24350  0.65990  0.44120  Biso   1.000  H
  C190     1.0000 0.13510  0.74490  0.43340  Biso   1.000  C
  H137     1.0000 0.12180  0.78060  0.44550  Biso   1.000  H
  C191     1.0000 0.10110  0.71450  0.39960  Biso   1.000  C
  H138     1.0000 0.06480  0.72870  0.38960  Biso   1.000  H
  C192     1.0000 0.12400  0.66120  0.38130  Biso   1.000  C
  H139     1.0000 0.10260  0.63960  0.35890  Biso   1.000  H
  N76      1.0000 0.24280  0.36990  0.27670  Biso   1.000  N
  N77      1.0000 0.25360  0.51010  0.37100  Biso   1.000  N
  N78      1.0000 0.24610  0.56330  0.39690  Biso   1.000  N
  H140     1.0000 0.26750  0.57710  0.41990  Biso   1.000  H
  N79      1.0000 0.17410  0.55420  0.34270  Biso   1.000  N
  N80      1.0000 0.18590  0.72370  0.44830  Biso   1.000  N
  C193     1.0000 0.63750  0.80480  0.24950  Biso   1.000  C
  H141     1.0000 0.67020  0.80710  0.22950  Biso   1.000  H
  C194     1.0000 0.59800  0.85100  0.25000  Biso   1.000  C
  H142     1.0000 0.60400  0.88410  0.23090  Biso   1.000  H
  C195     1.0000 0.54850  0.84650  0.28020  Biso   1.000  C
  H143     1.0000 0.52060  0.87640  0.28140  Biso   1.000  H
  C196     1.0000 0.54210  0.79470  0.30920  Biso   1.000  C
  C197     1.0000 0.58400  0.75210  0.30610  Biso   1.000  C
  H144     1.0000 0.58020  0.71850  0.32500  Biso   1.000  H
  C198     1.0000 0.49180  0.78940  0.34040  Biso   1.000  C
  C199     1.0000 0.41300  0.80180  0.37720  Biso   1.000  C
  C200     1.0000 0.35810  0.82360  0.39620  Biso   1.000  C
  C201     1.0000 0.32640  0.79270  0.43040  Biso   1.000  C
  H145     1.0000 0.34010  0.75650  0.44120  Biso   1.000  H
  C202     1.0000 0.25510  0.86490  0.43340  Biso   1.000  C
  H146     1.0000 0.21940  0.87820  0.44550  Biso   1.000  H
  C203     1.0000 0.28550  0.89890  0.39960  Biso   1.000  C
  H147     1.0000 0.27130  0.93520  0.38960  Biso   1.000  H
  C204     1.0000 0.33880  0.87600  0.38130  Biso   1.000  C
  H148     1.0000 0.36040  0.89740  0.35890  Biso   1.000  H
  N81      1.0000 0.63010  0.75720  0.27670  Biso   1.000  N
  N82      1.0000 0.48990  0.74640  0.37100  Biso   1.000  N
  N83      1.0000 0.43670  0.75390  0.39690  Biso   1.000  N
  H149     1.0000 0.42290  0.73250  0.41990  Biso   1.000  H
  N84      1.0000 0.44580  0.82590  0.34270  Biso   1.000  N
  N85      1.0000 0.27630  0.81410  0.44830  Biso   1.000  N
  C205     1.0000 0.36250  0.19520  0.24950  Biso   1.000  C
  H150     1.0000 0.32980  0.19290  0.22950  Biso   1.000  H
  C206     1.0000 0.40200  0.14900  0.25000  Biso   1.000  C
  H151     1.0000 0.39600  0.11590  0.23090  Biso   1.000  H
  C207     1.0000 0.45150  0.15350  0.28020  Biso   1.000  C
  H152     1.0000 0.47940  0.12360  0.28140  Biso   1.000  H
  C208     1.0000 0.45790  0.20530  0.30920  Biso   1.000  C
  C209     1.0000 0.41600  0.24790  0.30610  Biso   1.000  C
  H153     1.0000 0.41980  0.28150  0.32500  Biso   1.000  H
  C210     1.0000 0.50820  0.21060  0.34040  Biso   1.000  C
  C211     1.0000 0.58700  0.19820  0.37720  Biso   1.000  C
  C212     1.0000 0.64190  0.17640  0.39620  Biso   1.000  C
  C213     1.0000 0.67360  0.20730  0.43040  Biso   1.000  C
  H154     1.0000 0.65990  0.24350  0.44120  Biso   1.000  H
  C214     1.0000 0.74490  0.13510  0.43340  Biso   1.000  C
  H155     1.0000 0.78060  0.12180  0.44550  Biso   1.000  H
  C215     1.0000 0.71450  0.10110  0.39960  Biso   1.000  C
  H156     1.0000 0.72870  0.06480  0.38960  Biso   1.000  H
  C216     1.0000 0.66120  0.12400  0.38130  Biso   1.000  C
  H157     1.0000 0.63960  0.10260  0.35890  Biso   1.000  H
  N86      1.0000 0.36990  0.24280  0.27670  Biso   1.000  N
  N87      1.0000 0.51010  0.25360  0.37100  Biso   1.000  N
  N88      1.0000 0.56330  0.24610  0.39690  Biso   1.000  N
  H158     1.0000 0.57710  0.26750  0.41990  Biso   1.000  H
  N89      1.0000 0.55420  0.17410  0.34270  Biso   1.000  N
  N90      1.0000 0.72370  0.18590  0.44830  Biso   1.000  N
  C217     1.0000 0.19520  0.36250  0.75050  Biso   1.000  C
  H159     1.0000 0.19290  0.32980  0.77050  Biso   1.000  H
  C218     1.0000 0.14900  0.40200  0.75000  Biso   1.000  C
  H160     1.0000 0.11590  0.39600  0.76910  Biso   1.000  H
  C219     1.0000 0.15350  0.45150  0.71980  Biso   1.000  C
  H161     1.0000 0.12360  0.47940  0.71860  Biso   1.000  H
  C220     1.0000 0.20530  0.45790  0.69080  Biso   1.000  C
  C221     1.0000 0.24790  0.41600  0.69390  Biso   1.000  C
  H162     1.0000 0.28150  0.41980  0.67500  Biso   1.000  H
  C222     1.0000 0.21060  0.50820  0.65960  Biso   1.000  C
  C223     1.0000 0.19820  0.58700  0.62280  Biso   1.000  C
  C224     1.0000 0.17640  0.64190  0.60380  Biso   1.000  C
  C225     1.0000 0.20730  0.67360  0.56960  Biso   1.000  C
  H163     1.0000 0.24350  0.65990  0.55880  Biso   1.000  H
  C226     1.0000 0.13510  0.74490  0.56660  Biso   1.000  C
  H164     1.0000 0.12180  0.78060  0.55450  Biso   1.000  H
  C227     1.0000 0.10110  0.71450  0.60040  Biso   1.000  C
  H165     1.0000 0.06480  0.72870  0.61040  Biso   1.000  H
  C228     1.0000 0.12400  0.66120  0.61870  Biso   1.000  C
  H166     1.0000 0.10260  0.63960  0.64110  Biso   1.000  H
  N91      1.0000 0.24280  0.36990  0.72330  Biso   1.000  N
  N92      1.0000 0.25360  0.51010  0.62900  Biso   1.000  N
  N93      1.0000 0.24610  0.56330  0.60310  Biso   1.000  N
  H167     1.0000 0.26750  0.57710  0.58010  Biso   1.000  H
  N94      1.0000 0.17410  0.55420  0.65730  Biso   1.000  N
  N95      1.0000 0.18590  0.72370  0.55170  Biso   1.000  N
  C229     1.0000 0.80480  0.63750  0.75050  Biso   1.000  C
  H168     1.0000 0.80710  0.67020  0.77050  Biso   1.000  H
  C230     1.0000 0.85100  0.59800  0.75000  Biso   1.000  C
  H169     1.0000 0.88410  0.60400  0.76910  Biso   1.000  H
  C231     1.0000 0.84650  0.54850  0.71980  Biso   1.000  C
  H170     1.0000 0.87640  0.52060  0.71860  Biso   1.000  H
  C232     1.0000 0.79470  0.54210  0.69080  Biso   1.000  C
  C233     1.0000 0.75210  0.58400  0.69390  Biso   1.000  C
  H171     1.0000 0.71850  0.58020  0.67500  Biso   1.000  H
  C234     1.0000 0.78940  0.49180  0.65960  Biso   1.000  C
  C235     1.0000 0.80180  0.41300  0.62280  Biso   1.000  C
  C236     1.0000 0.82360  0.35810  0.60380  Biso   1.000  C
  C237     1.0000 0.79270  0.32640  0.56960  Biso   1.000  C
  H172     1.0000 0.75650  0.34010  0.55880  Biso   1.000  H
  C238     1.0000 0.86490  0.25510  0.56660  Biso   1.000  C
  H173     1.0000 0.87820  0.21940  0.55450  Biso   1.000  H
  C239     1.0000 0.89890  0.28550  0.60040  Biso   1.000  C
  H174     1.0000 0.93520  0.27130  0.61040  Biso   1.000  H
  C240     1.0000 0.87600  0.33880  0.61870  Biso   1.000  C
  H175     1.0000 0.89740  0.36040  0.64110  Biso   1.000  H
  N96      1.0000 0.75720  0.63010  0.72330  Biso   1.000  N
  N97      1.0000 0.74640  0.48990  0.62900  Biso   1.000  N
  N98      1.0000 0.75390  0.43670  0.60310  Biso   1.000  N
  H176     1.0000 0.73250  0.42290  0.58010  Biso   1.000  H
  N99      1.0000 0.82590  0.44580  0.65730  Biso   1.000  N
  N100     1.0000 0.81410  0.27630  0.55170  Biso   1.000  N
  Pd7      1.0000 0.30742  0.30742  0.72407  Biso   1.000  Pd
  C241     1.0000 0.34270  0.34270  0.82280  Biso   1.000  C
  H177     1.0000 0.31490  0.31490  0.83210  Biso   1.000  H
  C242     1.0000 0.37260  0.37260  0.85830  Biso   1.000  C
  H178     1.0000 0.36540  0.36540  0.89090  Biso   1.000  H
  C243     1.0000 0.41390  0.41390  0.84420  Biso   1.000  C
  H179     1.0000 0.43470  0.43470  0.86760  Biso   1.000  H
  C244     1.0000 0.42420  0.42420  0.79710  Biso   1.000  C
  C245     1.0000 0.39290  0.39290  0.76130  Biso   1.000  C
  H180     1.0000 0.40020  0.40020  0.72870  Biso   1.000  H
  C246     1.0000 0.46800  0.46800  0.78100  Biso   1.000  C
  C247     1.0000 0.22110  0.22110  0.68270  Biso   1.000  C
  H181     1.0000 0.21300  0.21300  0.71510  Biso   1.000  H
  C248     1.0000 0.19250  0.19250  0.64980  Biso   1.000  C
  H182     1.0000 0.16470  0.16470  0.65900  Biso   1.000  H
  C249     1.0000 0.20250  0.20250  0.60190  Biso   1.000  C
  H183     1.0000 0.18190  0.18190  0.57830  Biso   1.000  H
  C250     1.0000 0.24500  0.24500  0.58910  Biso   1.000  C
  C251     1.0000 0.27560  0.27560  0.62570  Biso   1.000  C
  H184     1.0000 0.30360  0.30360  0.61760  Biso   1.000  H
  C252     1.0000 0.25750  0.25750  0.53930  Biso   1.000  C
  N101     1.0000 0.35180  0.35180  0.77420  Biso   1.000  N
  N102     1.0000 0.47840  0.47840  0.73450  Biso   1.000  N
  N103     1.0000 0.26380  0.26380  0.67240  Biso   1.000  N
  N104     1.0000 0.29500  0.29500  0.52540  Biso   1.000  N
  Pd8      1.0000 0.69258  0.69258  0.72407  Biso   1.000  Pd
  C253     1.0000 0.65730  0.65730  0.82280  Biso   1.000  C
  H185     1.0000 0.68510  0.68510  0.83210  Biso   1.000  H
  C254     1.0000 0.62740  0.62740  0.85830  Biso   1.000  C
  H186     1.0000 0.63460  0.63460  0.89090  Biso   1.000  H
  C255     1.0000 0.58610  0.58610  0.84420  Biso   1.000  C
  H187     1.0000 0.56530  0.56530  0.86760  Biso   1.000  H
  C256     1.0000 0.57580  0.57580  0.79710  Biso   1.000  C
  C257     1.0000 0.60710  0.60710  0.76130  Biso   1.000  C
  H188     1.0000 0.59980  0.59980  0.72870  Biso   1.000  H
  C258     1.0000 0.53200  0.53200  0.78100  Biso   1.000  C
  C259     1.0000 0.77890  0.77890  0.68270  Biso   1.000  C
  H189     1.0000 0.78700  0.78700  0.71510  Biso   1.000  H
  C260     1.0000 0.80750  0.80750  0.64980  Biso   1.000  C
  H190     1.0000 0.83530  0.83530  0.65900  Biso   1.000  H
  C261     1.0000 0.79750  0.79750  0.60190  Biso   1.000  C
  H191     1.0000 0.81810  0.81810  0.57830  Biso   1.000  H
  C262     1.0000 0.75500  0.75500  0.58910  Biso   1.000  C
  C263     1.0000 0.72440  0.72440  0.62570  Biso   1.000  C
  H192     1.0000 0.69640  0.69640  0.61760  Biso   1.000  H
  C264     1.0000 0.74250  0.74250  0.53930  Biso   1.000  C
  N105     1.0000 0.64820  0.64820  0.77420  Biso   1.000  N
  N106     1.0000 0.52160  0.52160  0.73450  Biso   1.000  N
  N107     1.0000 0.73620  0.73620  0.67240  Biso   1.000  N
  N108     1.0000 0.70500  0.70500  0.52540  Biso   1.000  N
  Pd9      1.0000 0.69258  0.69258  0.27593  Biso   1.000  Pd
  C265     1.0000 0.65730  0.65730  0.17720  Biso   1.000  C
  H193     1.0000 0.68510  0.68510  0.16790  Biso   1.000  H
  C266     1.0000 0.62740  0.62740  0.14170  Biso   1.000  C
  H194     1.0000 0.63460  0.63460  0.10910  Biso   1.000  H
  C267     1.0000 0.58610  0.58610  0.15580  Biso   1.000  C
  H195     1.0000 0.56530  0.56530  0.13240  Biso   1.000  H
  C268     1.0000 0.57580  0.57580  0.20290  Biso   1.000  C
  C269     1.0000 0.60710  0.60710  0.23870  Biso   1.000  C
  H196     1.0000 0.59980  0.59980  0.27130  Biso   1.000  H
  C270     1.0000 0.53200  0.53200  0.21900  Biso   1.000  C
  C271     1.0000 0.77890  0.77890  0.31730  Biso   1.000  C
  H197     1.0000 0.78700  0.78700  0.28490  Biso   1.000  H
  C272     1.0000 0.80750  0.80750  0.35020  Biso   1.000  C
  H198     1.0000 0.83530  0.83530  0.34100  Biso   1.000  H
  C273     1.0000 0.79750  0.79750  0.39810  Biso   1.000  C
  H199     1.0000 0.81810  0.81810  0.42170  Biso   1.000  H
  C274     1.0000 0.75500  0.75500  0.41090  Biso   1.000  C
  C275     1.0000 0.72440  0.72440  0.37430  Biso   1.000  C
  H200     1.0000 0.69640  0.69640  0.38240  Biso   1.000  H
  C276     1.0000 0.74250  0.74250  0.46070  Biso   1.000  C
  N109     1.0000 0.64820  0.64820  0.22580  Biso   1.000  N
  N110     1.0000 0.52160  0.52160  0.26550  Biso   1.000  N
  N111     1.0000 0.73620  0.73620  0.32760  Biso   1.000  N
  N112     1.0000 0.70500  0.70500  0.47460  Biso   1.000  N
  Pd10     1.0000 0.30742  0.30742  0.27593  Biso   1.000  Pd
  C277     1.0000 0.34270  0.34270  0.17720  Biso   1.000  C
  H201     1.0000 0.31490  0.31490  0.16790  Biso   1.000  H
  C278     1.0000 0.37260  0.37260  0.14170  Biso   1.000  C
  H202     1.0000 0.36540  0.36540  0.10910  Biso   1.000  H
  C279     1.0000 0.41390  0.41390  0.15580  Biso   1.000  C
  H203     1.0000 0.43470  0.43470  0.13240  Biso   1.000  H
  C280     1.0000 0.42420  0.42420  0.20290  Biso   1.000  C
  C281     1.0000 0.39290  0.39290  0.23870  Biso   1.000  C
  H204     1.0000 0.40020  0.40020  0.27130  Biso   1.000  H
  C282     1.0000 0.46800  0.46800  0.21900  Biso   1.000  C
  C283     1.0000 0.22110  0.22110  0.31730  Biso   1.000  C
  H205     1.0000 0.21300  0.21300  0.28490  Biso   1.000  H
  C284     1.0000 0.19250  0.19250  0.35020  Biso   1.000  C
  H206     1.0000 0.16470  0.16470  0.34100  Biso   1.000  H
  C285     1.0000 0.20250  0.20250  0.39810  Biso   1.000  C
  H207     1.0000 0.18190  0.18190  0.42170  Biso   1.000  H
  C286     1.0000 0.24500  0.24500  0.41090  Biso   1.000  C
  C287     1.0000 0.27560  0.27560  0.37430  Biso   1.000  C
  H208     1.0000 0.30360  0.30360  0.38240  Biso   1.000  H
  C288     1.0000 0.25750  0.25750  0.46070  Biso   1.000  C
  N113     1.0000 0.35180  0.35180  0.22580  Biso   1.000  N
  N114     1.0000 0.47840  0.47840  0.26550  Biso   1.000  N
  N115     1.0000 0.26380  0.26380  0.32760  Biso   1.000  N
  N116     1.0000 0.29500  0.29500  0.47460  Biso   1.000  N
  Pd11     1.0000 0.76824  0.23176  0.50000  Biso   1.000  Pd
  Pd12     1.0000 0.23176  0.76824  0.50000  Biso   1.000  Pd
  N117     1.0000 0.50000  0.50000  0.81120  Biso   1.000  N
  N118     1.0000 0.50000  0.50000  0.18880  Biso   1.000  N
  N119     1.0000 0.23070  0.23070  0.50000  Biso   1.000  N
  N120     1.0000 0.76930  0.76930  0.50000  Biso   1.000  N
