data_image0
_cell_length_a       10.9593
_cell_length_b       13.8454
_cell_length_c       17.4039
_cell_angle_alpha    109.186
_cell_angle_beta     90.177
_cell_angle_gamma    108.009

_symmetry_space_group_name_H-M    "P 1"
_symmetry_int_tables_number       1

loop_
  _symmetry_equiv_pos_as_xyz
  'x, y, z'

loop_
  _atom_site_label
  _atom_site_occupancy
  _atom_site_fract_x
  _atom_site_fract_y
  _atom_site_fract_z
  _atom_site_thermal_displace_type
  _atom_site_B_iso_or_equiv
  _atom_site_type_symbol
  Zn1      1.0000 0.58450  0.93737  0.41076  Biso   1.000  Zn
  Cu1      1.0000 0.25150  0.89043  0.40482  Biso   1.000  Cu
  Cl1      1.0000 0.66160  0.83210  0.30480  Biso   1.000  Cl
  O1       1.0000 0.40540  0.85100  0.40960  Biso   1.000  O
  O2       1.0000 0.40530  0.65540  0.21360  Biso   1.000  O
  H1       1.0000 0.47550  0.70700  0.22740  Biso   1.000  H
  O3       1.0000 0.13490  0.53320  0.36640  Biso   1.000  O
  H2       1.0000 0.18470  0.54050  0.40620  Biso   1.000  H
  O4       1.0000 0.32600  0.98770  0.31080  Biso   1.000  O
  H3       1.0000 0.40320  0.02610  0.32860  Biso   1.000  H
  O5       1.0000 0.32570  0.03630  0.48410  Biso   1.000  O
  O6       1.0000 0.99040  0.10160  0.45600  Biso   1.000  O
  H4       1.0000 0.91600  0.09520  0.43800  Biso   1.000  H
  N1       1.0000 0.16150  0.73260  0.35040  Biso   1.000  N
  H5       1.0000 0.12840  0.70680  0.39610  Biso   1.000  H
  N2       1.0000 0.10410  0.94180  0.39120  Biso   1.000  N
  H6       1.0000 0.05990  0.94630  0.44180  Biso   1.000  H
  C1       1.0000 0.95100  0.76010  0.32140  Biso   1.000  C
  H7       1.0000 0.86730  0.72260  0.28620  Biso   1.000  H
  H8       1.0000 0.93520  0.76220  0.37780  Biso   1.000  H
  C2       1.0000 0.04500  0.69460  0.28990  Biso   1.000  C
  H9       1.0000 0.99880  0.61690  0.27940  Biso   1.000  H
  H10      1.0000 0.07220  0.70250  0.23750  Biso   1.000  H
  C3       1.0000 0.25870  0.67770  0.31990  Biso   1.000  C
  C4       1.0000 0.37240  0.73730  0.38770  Biso   1.000  C
  H11      1.0000 0.34930  0.71670  0.43650  Biso   1.000  H
  H12      1.0000 0.44810  0.71530  0.36870  Biso   1.000  H
  C5       1.0000 0.30100  0.69610  0.23820  Biso   1.000  C
  H13      1.0000 0.22710  0.65840  0.19460  Biso   1.000  H
  H14      1.0000 0.32880  0.77440  0.24660  Biso   1.000  H
  C6       1.0000 0.21000  0.55730  0.30330  Biso   1.000  C
  H15      1.0000 0.15540  0.51990  0.24970  Biso   1.000  H
  H16      1.0000 0.28360  0.53020  0.30060  Biso   1.000  H
  C7       1.0000 0.00300  0.87180  0.32110  Biso   1.000  C
  H17      1.0000 0.93190  0.90240  0.32410  Biso   1.000  H
  H18      1.0000 0.04020  0.87090  0.26920  Biso   1.000  H
  C8       1.0000 0.16890  0.05320  0.39580  Biso   1.000  C
  C9       1.0000 0.24720  0.05580  0.32270  Biso   1.000  C
  H19      1.0000 0.18700  0.03170  0.27240  Biso   1.000  H
  H20      1.0000 0.30290  0.13120  0.33230  Biso   1.000  H
  C10      1.0000 0.25800  0.10650  0.47680  Biso   1.000  C
  H21      1.0000 0.32090  0.17640  0.47820  Biso   1.000  H
  H22      1.0000 0.20680  0.12110  0.52330  Biso   1.000  H
  C11      1.0000 0.07480  0.11500  0.39740  Biso   1.000  C
  H23      1.0000 0.12340  0.19290  0.41070  Biso   1.000  H
  H24      1.0000 0.02480  0.08780  0.34270  Biso   1.000  H
  Zn2      1.0000 0.41550  0.06263  0.58924  Biso   1.000  Zn
  Cu2      1.0000 0.74850  0.10957  0.59518  Biso   1.000  Cu
  Cl2      1.0000 0.33840  0.16790  0.69520  Biso   1.000  Cl
  O7       1.0000 0.59460  0.14900  0.59040  Biso   1.000  O
  O8       1.0000 0.59470  0.34460  0.78640  Biso   1.000  O
  H25      1.0000 0.52450  0.29300  0.77260  Biso   1.000  H
  O9       1.0000 0.86510  0.46680  0.63360  Biso   1.000  O
  H26      1.0000 0.81530  0.45950  0.59380  Biso   1.000  H
  O10      1.0000 0.67400  0.01230  0.68920  Biso   1.000  O
  H27      1.0000 0.59680  0.97390  0.67140  Biso   1.000  H
  O11      1.0000 0.67430  0.96370  0.51590  Biso   1.000  O
  O12      1.0000 0.00960  0.89840  0.54400  Biso   1.000  O
  H28      1.0000 0.08400  0.90480  0.56200  Biso   1.000  H
  N3       1.0000 0.83850  0.26740  0.64960  Biso   1.000  N
  H29      1.0000 0.87160  0.29320  0.60390  Biso   1.000  H
  N4       1.0000 0.89590  0.05820  0.60880  Biso   1.000  N
  H30      1.0000 0.94010  0.05370  0.55820  Biso   1.000  H
  C12      1.0000 0.04900  0.23990  0.67860  Biso   1.000  C
  H31      1.0000 0.13270  0.27740  0.71380  Biso   1.000  H
  H32      1.0000 0.06480  0.23780  0.62220  Biso   1.000  H
  C13      1.0000 0.95500  0.30540  0.71010  Biso   1.000  C
  H33      1.0000 0.00120  0.38310  0.72060  Biso   1.000  H
  H34      1.0000 0.92780  0.29750  0.76250  Biso   1.000  H
  C14      1.0000 0.74130  0.32230  0.68010  Biso   1.000  C
  C15      1.0000 0.62760  0.26270  0.61230  Biso   1.000  C
  H35      1.0000 0.65070  0.28330  0.56350  Biso   1.000  H
  H36      1.0000 0.55190  0.28470  0.63130  Biso   1.000  H
  C16      1.0000 0.69900  0.30390  0.76180  Biso   1.000  C
  H37      1.0000 0.77290  0.34160  0.80540  Biso   1.000  H
  H38      1.0000 0.67120  0.22560  0.75340  Biso   1.000  H
  C17      1.0000 0.79000  0.44270  0.69670  Biso   1.000  C
  H39      1.0000 0.84460  0.48010  0.75030  Biso   1.000  H
  H40      1.0000 0.71640  0.46980  0.69940  Biso   1.000  H
  C18      1.0000 0.99700  0.12820  0.67890  Biso   1.000  C
  H41      1.0000 0.06810  0.09760  0.67590  Biso   1.000  H
  H42      1.0000 0.95980  0.12910  0.73080  Biso   1.000  H
  C19      1.0000 0.83110  0.94680  0.60420  Biso   1.000  C
  C20      1.0000 0.75280  0.94420  0.67730  Biso   1.000  C
  H43      1.0000 0.81300  0.96830  0.72760  Biso   1.000  H
  H44      1.0000 0.69710  0.86880  0.66770  Biso   1.000  H
  C21      1.0000 0.74200  0.89350  0.52320  Biso   1.000  C
  H45      1.0000 0.67910  0.82360  0.52180  Biso   1.000  H
  H46      1.0000 0.79320  0.87890  0.47670  Biso   1.000  H
  C22      1.0000 0.92520  0.88500  0.60260  Biso   1.000  C
  H47      1.0000 0.87660  0.80710  0.58930  Biso   1.000  H
  H48      1.0000 0.97520  0.91220  0.65730  Biso   1.000  H
  Zn3      1.0000 0.91040  0.05478  0.94055  Biso   1.000  Zn
  Cu3      1.0000 0.75510  0.89465  0.04184  Biso   1.000  Cu
  Cl3      1.0000 0.82990  0.15570  0.88670  Biso   1.000  Cl
  O13      1.0000 0.90910  0.85770  0.01740  Biso   1.000  O
  O14      1.0000 0.92120  0.66430  0.10740  Biso   1.000  O
  H49      1.0000 0.90840  0.60560  0.06850  Biso   1.000  H
  O15      1.0000 0.64660  0.54970  0.89340  Biso   1.000  O
  H50      1.0000 0.56780  0.52770  0.89900  Biso   1.000  H
  O16      1.0000 0.83300  0.99880  0.18670  Biso   1.000  O
  H51      1.0000 0.90850  0.03800  0.18600  Biso   1.000  H
  O17      1.0000 0.82790  0.03830  0.03490  Biso   1.000  O
  O18      1.0000 0.48950  0.10310  0.09370  Biso   1.000  O
  H52      1.0000 0.44730  0.03690  0.07150  Biso   1.000  H
  N5       1.0000 0.66880  0.73710  0.01560  Biso   1.000  N
  H53      1.0000 0.63200  0.70960  0.95690  Biso   1.000  H
  N6       1.0000 0.60870  0.94560  0.08150  Biso   1.000  N
  H54      1.0000 0.56200  0.94600  0.03220  Biso   1.000  H
  C23      1.0000 0.46100  0.75970  0.05900  Biso   1.000  C
  H55      1.0000 0.37800  0.72060  0.07430  Biso   1.000  H
  H56      1.0000 0.44420  0.75890  0.00280  Biso   1.000  H
  C24      1.0000 0.55600  0.70100  0.05940  Biso   1.000  C
  H57      1.0000 0.58760  0.71480  0.11670  Biso   1.000  H
  H58      1.0000 0.51280  0.62210  0.03280  Biso   1.000  H
  C25      1.0000 0.76790  0.68480  0.01610  Biso   1.000  C
  C26      1.0000 0.87820  0.74690  0.97840  Biso   1.000  C
  H59      1.0000 0.91950  0.71380  0.93430  Biso   1.000  H
  C27      1.0000 0.81550  0.70190  0.10480  Biso   1.000  C
  H60      1.0000 0.84180  0.78000  0.13790  Biso   1.000  H
  H61      1.0000 0.74380  0.66290  0.12920  Biso   1.000  H
  C28      1.0000 0.72100  0.56260  0.96430  Biso   1.000  C
  H62      1.0000 0.79600  0.53730  0.94940  Biso   1.000  H
  H63      1.0000 0.66840  0.52010  0.99570  Biso   1.000  H
  C29      1.0000 0.50880  0.87920  0.11880  Biso   1.000  C
  H64      1.0000 0.43550  0.90750  0.12870  Biso   1.000  H
  H65      1.0000 0.54650  0.88300  0.17200  Biso   1.000  H
  C30      1.0000 0.67170  0.05910  0.13140  Biso   1.000  C
  C31      1.0000 0.75170  0.06350  0.20710  Biso   1.000  C
  H66      1.0000 0.80540  0.13950  0.23690  Biso   1.000  H
  H67      1.0000 0.69160  0.03910  0.24440  Biso   1.000  H
  C32      1.0000 0.76110  0.10810  0.07550  Biso   1.000  C
  H68      1.0000 0.76950  0.17560  0.06960  Biso   1.000  H
  C33      1.0000 0.57590  0.11820  0.16290  Biso   1.000  C
  H69      1.0000 0.52600  0.08890  0.20230  Biso   1.000  H
  H70      1.0000 0.62240  0.19630  0.19130  Biso   1.000  H
  Zn4      1.0000 0.08960  0.94522  0.05945  Biso   1.000  Zn
  Cu4      1.0000 0.24490  0.10535  0.95816  Biso   1.000  Cu
  Cl4      1.0000 0.17010  0.84430  0.11330  Biso   1.000  Cl
  O19      1.0000 0.09090  0.14230  0.98260  Biso   1.000  O
  O20      1.0000 0.07880  0.33570  0.89260  Biso   1.000  O
  H71      1.0000 0.09160  0.39440  0.93150  Biso   1.000  H
  O21      1.0000 0.35340  0.45030  0.10660  Biso   1.000  O
  H72      1.0000 0.43220  0.47230  0.10100  Biso   1.000  H
  O22      1.0000 0.16700  0.00120  0.81330  Biso   1.000  O
  H73      1.0000 0.09150  0.96200  0.81400  Biso   1.000  H
  O23      1.0000 0.17210  0.96170  0.96510  Biso   1.000  O
  O24      1.0000 0.51050  0.89690  0.90630  Biso   1.000  O
  H74      1.0000 0.55270  0.96310  0.92850  Biso   1.000  H
  N7       1.0000 0.33120  0.26290  0.98440  Biso   1.000  N
  H75      1.0000 0.36800  0.29040  0.04310  Biso   1.000  H
  N8       1.0000 0.39130  0.05440  0.91850  Biso   1.000  N
  H76      1.0000 0.43800  0.05400  0.96780  Biso   1.000  H
  C34      1.0000 0.53900  0.24030  0.94100  Biso   1.000  C
  H77      1.0000 0.62200  0.27940  0.92570  Biso   1.000  H
  H78      1.0000 0.55580  0.24110  0.99720  Biso   1.000  H
  C35      1.0000 0.44400  0.29900  0.94060  Biso   1.000  C
  H79      1.0000 0.41240  0.28520  0.88330  Biso   1.000  H
  H80      1.0000 0.48720  0.37790  0.96720  Biso   1.000  H
  C36      1.0000 0.23210  0.31520  0.98390  Biso   1.000  C
  C37      1.0000 0.12180  0.25310  0.02160  Biso   1.000  C
  H81      1.0000 0.08050  0.28620  0.06570  Biso   1.000  H
  C38      1.0000 0.18450  0.29810  0.89520  Biso   1.000  C
  H82      1.0000 0.15820  0.22000  0.86210  Biso   1.000  H
  H83      1.0000 0.25620  0.33710  0.87080  Biso   1.000  H
  C39      1.0000 0.27900  0.43740  0.03570  Biso   1.000  C
  H84      1.0000 0.20400  0.46270  0.05060  Biso   1.000  H
  H85      1.0000 0.33160  0.47990  0.00430  Biso   1.000  H
  C40      1.0000 0.49120  0.12080  0.88120  Biso   1.000  C
  H86      1.0000 0.56450  0.09250  0.87130  Biso   1.000  H
  H87      1.0000 0.45350  0.11700  0.82800  Biso   1.000  H
  C41      1.0000 0.32830  0.94090  0.86860  Biso   1.000  C
  C42      1.0000 0.24830  0.93650  0.79290  Biso   1.000  C
  H88      1.0000 0.19460  0.86050  0.76310  Biso   1.000  H
  H89      1.0000 0.30840  0.96090  0.75560  Biso   1.000  H
  C43      1.0000 0.23890  0.89190  0.92450  Biso   1.000  C
  H90      1.0000 0.23050  0.82440  0.93040  Biso   1.000  H
  C44      1.0000 0.42410  0.88180  0.83710  Biso   1.000  C
  H91      1.0000 0.47400  0.91110  0.79770  Biso   1.000  H
  H92      1.0000 0.37760  0.80370  0.80870  Biso   1.000  H
