data_image0
_cell_length_a       12.7216
_cell_length_b       9.496
_cell_length_c       18.09
_cell_angle_alpha    90
_cell_angle_beta     108.228
_cell_angle_gamma    90

_symmetry_space_group_name_H-M    "P 1"
_symmetry_int_tables_number       1

loop_
  _symmetry_equiv_pos_as_xyz
  'x, y, z'

loop_
  _atom_site_label
  _atom_site_occupancy
  _atom_site_fract_x
  _atom_site_fract_y
  _atom_site_fract_z
  _atom_site_thermal_displace_type
  _atom_site_B_iso_or_equiv
  _atom_site_type_symbol
  Zn1      1.0000 0.79669  0.95994  0.07309  Biso   1.000  Zn
  Cl1      1.0000 0.66224  0.84810  0.10191  Biso   1.000  Cl
  O1       1.0000 0.13000  0.87440  0.05300  Biso   1.000  O
  O2       1.0000 0.27650  0.91630  0.01420  Biso   1.000  O
  O3       1.0000 0.47280  0.58380  0.39140  Biso   1.000  O
  O4       1.0000 0.61040  0.57040  0.33990  Biso   1.000  O
  C1       1.0000 0.30170  0.79250  0.13120  Biso   1.000  C
  C2       1.0000 0.41440  0.77690  0.14110  Biso   1.000  C
  H1       1.0000 0.44360  0.80870  0.10300  Biso   1.000  H
  C3       1.0000 0.48220  0.71420  0.20770  Biso   1.000  C
  H2       1.0000 0.55730  0.70450  0.21420  Biso   1.000  H
  C4       1.0000 0.44100  0.66610  0.26410  Biso   1.000  C
  C5       1.0000 0.32920  0.67960  0.25260  Biso   1.000  C
  H3       1.0000 0.29960  0.64580  0.29010  Biso   1.000  H
  C6       1.0000 0.26150  0.74150  0.18730  Biso   1.000  C
  H4       1.0000 0.18630  0.74920  0.18080  Biso   1.000  H
  C7       1.0000 0.23040  0.86570  0.06060  Biso   1.000  C
  C8       1.0000 0.51380  0.60270  0.33750  Biso   1.000  C
  O5       1.0000 0.89060  0.84400  0.02830  Biso   1.000  O
  O6       1.0000 0.94030  0.73450  0.14210  Biso   1.000  O
  C9       1.0000 0.96840  0.61730  0.03600  Biso   1.000  C
  C10      1.0000 0.02510  0.50430  0.07990  Biso   1.000  C
  H5       1.0000 0.04200  0.50590  0.13380  Biso   1.000  H
  C11      1.0000 0.05670  0.38940  0.04430  Biso   1.000  C
  H6       1.0000 0.09530  0.31570  0.07470  Biso   1.000  H
  C12      1.0000 0.93260  0.73790  0.07390  Biso   1.000  C
  Zn2      1.0000 0.70331  0.45994  0.42691  Biso   1.000  Zn
  Cl2      1.0000 0.83776  0.34810  0.39809  Biso   1.000  Cl
  O7       1.0000 0.37000  0.37440  0.44700  Biso   1.000  O
  O8       1.0000 0.22350  0.41630  0.48580  Biso   1.000  O
  O9       1.0000 0.02720  0.08380  0.10860  Biso   1.000  O
  O10      1.0000 0.88960  0.07040  0.16010  Biso   1.000  O
  C13      1.0000 0.19830  0.29250  0.36880  Biso   1.000  C
  C14      1.0000 0.08560  0.27690  0.35890  Biso   1.000  C
  H7       1.0000 0.05640  0.30870  0.39700  Biso   1.000  H
  C15      1.0000 0.01780  0.21420  0.29230  Biso   1.000  C
  H8       1.0000 0.94270  0.20450  0.28580  Biso   1.000  H
  C16      1.0000 0.05900  0.16610  0.23590  Biso   1.000  C
  C17      1.0000 0.17080  0.17960  0.24740  Biso   1.000  C
  H9       1.0000 0.20040  0.14580  0.20990  Biso   1.000  H
  C18      1.0000 0.23850  0.24150  0.31270  Biso   1.000  C
  H10      1.0000 0.31370  0.24920  0.31920  Biso   1.000  H
  C19      1.0000 0.26960  0.36570  0.43940  Biso   1.000  C
  C20      1.0000 0.98620  0.10270  0.16250  Biso   1.000  C
  O11      1.0000 0.60940  0.34400  0.47170  Biso   1.000  O
  O12      1.0000 0.55970  0.23450  0.35790  Biso   1.000  O
  C21      1.0000 0.53160  0.11730  0.46400  Biso   1.000  C
  C22      1.0000 0.47490  0.00430  0.42010  Biso   1.000  C
  H11      1.0000 0.45800  0.00590  0.36620  Biso   1.000  H
  C23      1.0000 0.44330  0.88940  0.45570  Biso   1.000  C
  H12      1.0000 0.40470  0.81570  0.42530  Biso   1.000  H
  C24      1.0000 0.56740  0.23790  0.42610  Biso   1.000  C
  Zn3      1.0000 0.20331  0.04006  0.92691  Biso   1.000  Zn
  Cl3      1.0000 0.33776  0.15190  0.89809  Biso   1.000  Cl
  O13      1.0000 0.87000  0.12560  0.94700  Biso   1.000  O
  O14      1.0000 0.72350  0.08370  0.98580  Biso   1.000  O
  O15      1.0000 0.52720  0.41620  0.60860  Biso   1.000  O
  O16      1.0000 0.38960  0.42960  0.66010  Biso   1.000  O
  C25      1.0000 0.69830  0.20750  0.86880  Biso   1.000  C
  C26      1.0000 0.58560  0.22310  0.85890  Biso   1.000  C
  H13      1.0000 0.55640  0.19130  0.89700  Biso   1.000  H
  C27      1.0000 0.51780  0.28580  0.79230  Biso   1.000  C
  H14      1.0000 0.44270  0.29550  0.78580  Biso   1.000  H
  C28      1.0000 0.55900  0.33390  0.73590  Biso   1.000  C
  C29      1.0000 0.67080  0.32040  0.74740  Biso   1.000  C
  H15      1.0000 0.70040  0.35420  0.70990  Biso   1.000  H
  C30      1.0000 0.73850  0.25850  0.81270  Biso   1.000  C
  H16      1.0000 0.81370  0.25080  0.81920  Biso   1.000  H
  C31      1.0000 0.76960  0.13430  0.93940  Biso   1.000  C
  C32      1.0000 0.48620  0.39730  0.66250  Biso   1.000  C
  O17      1.0000 0.10940  0.15600  0.97170  Biso   1.000  O
  O18      1.0000 0.05970  0.26550  0.85790  Biso   1.000  O
  C33      1.0000 0.03160  0.38270  0.96400  Biso   1.000  C
  C34      1.0000 0.97490  0.49570  0.92010  Biso   1.000  C
  H17      1.0000 0.95800  0.49410  0.86620  Biso   1.000  H
  C35      1.0000 0.94330  0.61060  0.95570  Biso   1.000  C
  H18      1.0000 0.90470  0.68430  0.92530  Biso   1.000  H
  C36      1.0000 0.06740  0.26210  0.92610  Biso   1.000  C
  Zn4      1.0000 0.29669  0.54006  0.57309  Biso   1.000  Zn
  Cl4      1.0000 0.16224  0.65190  0.60191  Biso   1.000  Cl
  O19      1.0000 0.63000  0.62560  0.55300  Biso   1.000  O
  O20      1.0000 0.77650  0.58370  0.51420  Biso   1.000  O
  O21      1.0000 0.97280  0.91620  0.89140  Biso   1.000  O
  O22      1.0000 0.11040  0.92960  0.83990  Biso   1.000  O
  C37      1.0000 0.80170  0.70750  0.63120  Biso   1.000  C
  C38      1.0000 0.91440  0.72310  0.64110  Biso   1.000  C
  H19      1.0000 0.94360  0.69130  0.60300  Biso   1.000  H
  C39      1.0000 0.98220  0.78580  0.70770  Biso   1.000  C
  H20      1.0000 0.05730  0.79550  0.71420  Biso   1.000  H
  C40      1.0000 0.94100  0.83390  0.76410  Biso   1.000  C
  C41      1.0000 0.82920  0.82040  0.75260  Biso   1.000  C
  H21      1.0000 0.79960  0.85420  0.79010  Biso   1.000  H
  C42      1.0000 0.76150  0.75850  0.68730  Biso   1.000  C
  H22      1.0000 0.68630  0.75080  0.68080  Biso   1.000  H
  C43      1.0000 0.73040  0.63430  0.56060  Biso   1.000  C
  C44      1.0000 0.01380  0.89730  0.83750  Biso   1.000  C
  O23      1.0000 0.39060  0.65600  0.52830  Biso   1.000  O
  O24      1.0000 0.44030  0.76550  0.64210  Biso   1.000  O
  C45      1.0000 0.46840  0.88270  0.53600  Biso   1.000  C
  C46      1.0000 0.52510  0.99570  0.57990  Biso   1.000  C
  H23      1.0000 0.54200  0.99410  0.63380  Biso   1.000  H
  C47      1.0000 0.55670  0.11060  0.54430  Biso   1.000  C
  H24      1.0000 0.59530  0.18430  0.57470  Biso   1.000  H
  C48      1.0000 0.43260  0.76210  0.57390  Biso   1.000  C
  Zn5      1.0000 0.00000  0.00000  0.00000  Biso   1.000  Zn
  Zn6      1.0000 0.50000  0.50000  0.50000  Biso   1.000  Zn
