data_image0
_cell_length_a       17.733
_cell_length_b       8.1319
_cell_length_c       26.416
_cell_angle_alpha    90
_cell_angle_beta     101.854
_cell_angle_gamma    90

_symmetry_space_group_name_H-M    "P 1"
_symmetry_int_tables_number       1

loop_
  _symmetry_equiv_pos_as_xyz
  'x, y, z'

loop_
  _atom_site_label
  _atom_site_occupancy
  _atom_site_fract_x
  _atom_site_fract_y
  _atom_site_fract_z
  _atom_site_thermal_displace_type
  _atom_site_B_iso_or_equiv
  _atom_site_type_symbol
  N1       1.0000 0.04458  0.77020  0.83198  Biso   1.000  N
  C1       1.0000 0.10682  0.85210  0.85313  Biso   1.000  C
  H1       1.0000 0.13650  0.91210  0.83450  Biso   1.000  H
  C2       1.0000 0.01856  0.70010  0.87254  Biso   1.000  C
  H2       1.0000 0.97520  0.63360  0.86940  Biso   1.000  H
  O1       1.0000 0.37060  0.11100  0.03970  Biso   1.000  O
  N2       1.0000 0.12255  0.83880  0.90515  Biso   1.000  N
  N3       1.0000 0.21165  0.23320  0.19533  Biso   1.000  N
  N4       1.0000 0.11559  0.24240  0.23681  Biso   1.000  N
  C3       1.0000 0.25771  0.91650  0.92399  Biso   1.000  C
  H3       1.0000 0.26140  0.87490  0.89180  Biso   1.000  H
  C4       1.0000 0.32192  0.98480  0.95527  Biso   1.000  C
  H4       1.0000 0.36880  0.99270  0.94480  Biso   1.000  H
  C5       1.0000 0.31282  0.04100  0.00312  Biso   1.000  C
  C6       1.0000 0.24334  0.03140  0.02000  Biso   1.000  C
  C7       1.0000 0.17872  0.96520  0.98768  Biso   1.000  C
  H5       1.0000 0.13160  0.95930  0.99780  Biso   1.000  H
  C8       1.0000 0.18725  0.90840  0.93963  Biso   1.000  C
  C9       1.0000 0.25978  0.09920  0.07197  Biso   1.000  C
  C10      1.0000 0.33747  0.14330  0.08155  Biso   1.000  C
  C11      1.0000 0.37558  0.20890  0.12769  Biso   1.000  C
  H6       1.0000 0.42760  0.23560  0.13340  Biso   1.000  H
  C12      1.0000 0.33251  0.23340  0.16548  Biso   1.000  C
  H7       1.0000 0.35640  0.27500  0.19760  Biso   1.000  H
  C13      1.0000 0.25416  0.19680  0.15602  Biso   1.000  C
  C14      1.0000 0.21653  0.12870  0.10949  Biso   1.000  C
  H8       1.0000 0.16430  0.10350  0.10360  Biso   1.000  H
  C15      1.0000 0.23260  0.34190  0.23581  Biso   1.000  C
  H9       1.0000 0.27840  0.40100  0.24430  Biso   1.000  H
  C16      1.0000 0.17326  0.34520  0.26069  Biso   1.000  C
  H10      1.0000 0.17170  0.40830  0.28980  Biso   1.000  H
  C17      1.0000 0.14118  0.17680  0.19782  Biso   1.000  C
  H11      1.0000 0.11380  0.10080  0.17490  Biso   1.000  H
  C18      1.0000 0.06538  0.74220  0.91763  Biso   1.000  C
  H12      1.0000 0.06000  0.71190  0.95070  Biso   1.000  H
  N5       1.0000 0.95542  0.77020  0.66802  Biso   1.000  N
  C19      1.0000 0.89318  0.85210  0.64687  Biso   1.000  C
  H13      1.0000 0.86350  0.91210  0.66550  Biso   1.000  H
  C20      1.0000 0.98144  0.70010  0.62746  Biso   1.000  C
  H14      1.0000 0.02480  0.63360  0.63060  Biso   1.000  H
  O2       1.0000 0.62940  0.11100  0.46030  Biso   1.000  O
  N6       1.0000 0.87745  0.83880  0.59485  Biso   1.000  N
  N7       1.0000 0.78835  0.23320  0.30467  Biso   1.000  N
  N8       1.0000 0.88441  0.24240  0.26319  Biso   1.000  N
  C21      1.0000 0.74229  0.91650  0.57601  Biso   1.000  C
  H15      1.0000 0.73860  0.87490  0.60820  Biso   1.000  H
  C22      1.0000 0.67808  0.98480  0.54473  Biso   1.000  C
  H16      1.0000 0.63120  0.99270  0.55520  Biso   1.000  H
  C23      1.0000 0.68718  0.04100  0.49688  Biso   1.000  C
  C24      1.0000 0.75666  0.03140  0.48000  Biso   1.000  C
  C25      1.0000 0.82128  0.96520  0.51232  Biso   1.000  C
  H17      1.0000 0.86840  0.95930  0.50220  Biso   1.000  H
  C26      1.0000 0.81275  0.90840  0.56037  Biso   1.000  C
  C27      1.0000 0.74022  0.09920  0.42803  Biso   1.000  C
  C28      1.0000 0.66253  0.14330  0.41845  Biso   1.000  C
  C29      1.0000 0.62442  0.20890  0.37231  Biso   1.000  C
  H18      1.0000 0.57240  0.23560  0.36660  Biso   1.000  H
  C30      1.0000 0.66749  0.23340  0.33452  Biso   1.000  C
  H19      1.0000 0.64360  0.27500  0.30240  Biso   1.000  H
  C31      1.0000 0.74584  0.19680  0.34398  Biso   1.000  C
  C32      1.0000 0.78347  0.12870  0.39051  Biso   1.000  C
  H20      1.0000 0.83570  0.10350  0.39640  Biso   1.000  H
  C33      1.0000 0.76740  0.34190  0.26419  Biso   1.000  C
  H21      1.0000 0.72160  0.40100  0.25570  Biso   1.000  H
  C34      1.0000 0.82674  0.34520  0.23931  Biso   1.000  C
  H22      1.0000 0.82830  0.40830  0.21020  Biso   1.000  H
  C35      1.0000 0.85882  0.17680  0.30218  Biso   1.000  C
  H23      1.0000 0.88620  0.10080  0.32510  Biso   1.000  H
  C36      1.0000 0.93462  0.74220  0.58237  Biso   1.000  C
  H24      1.0000 0.94000  0.71190  0.54930  Biso   1.000  H
  N9       1.0000 0.95542  0.22980  0.16802  Biso   1.000  N
  C37      1.0000 0.89318  0.14790  0.14687  Biso   1.000  C
  H25      1.0000 0.86350  0.08790  0.16550  Biso   1.000  H
  C38      1.0000 0.98144  0.29990  0.12746  Biso   1.000  C
  H26      1.0000 0.02480  0.36640  0.13060  Biso   1.000  H
  O3       1.0000 0.62940  0.88900  0.96030  Biso   1.000  O
  N10      1.0000 0.87745  0.16120  0.09485  Biso   1.000  N
  N11      1.0000 0.78835  0.76680  0.80467  Biso   1.000  N
  N12      1.0000 0.88441  0.75760  0.76319  Biso   1.000  N
  C39      1.0000 0.74229  0.08350  0.07601  Biso   1.000  C
  H27      1.0000 0.73860  0.12510  0.10820  Biso   1.000  H
  C40      1.0000 0.67808  0.01520  0.04473  Biso   1.000  C
  H28      1.0000 0.63120  0.00730  0.05520  Biso   1.000  H
  C41      1.0000 0.68718  0.95900  0.99688  Biso   1.000  C
  C42      1.0000 0.75666  0.96860  0.98000  Biso   1.000  C
  C43      1.0000 0.82128  0.03480  0.01232  Biso   1.000  C
  H29      1.0000 0.86840  0.04070  0.00220  Biso   1.000  H
  C44      1.0000 0.81275  0.09160  0.06037  Biso   1.000  C
  C45      1.0000 0.74022  0.90080  0.92803  Biso   1.000  C
  C46      1.0000 0.66253  0.85670  0.91845  Biso   1.000  C
  C47      1.0000 0.62442  0.79110  0.87231  Biso   1.000  C
  H30      1.0000 0.57240  0.76440  0.86660  Biso   1.000  H
  C48      1.0000 0.66749  0.76660  0.83452  Biso   1.000  C
  H31      1.0000 0.64360  0.72500  0.80240  Biso   1.000  H
  C49      1.0000 0.74584  0.80320  0.84398  Biso   1.000  C
  C50      1.0000 0.78347  0.87130  0.89051  Biso   1.000  C
  H32      1.0000 0.83570  0.89650  0.89640  Biso   1.000  H
  C51      1.0000 0.76740  0.65810  0.76419  Biso   1.000  C
  H33      1.0000 0.72160  0.59900  0.75570  Biso   1.000  H
  C52      1.0000 0.82674  0.65480  0.73931  Biso   1.000  C
  H34      1.0000 0.82830  0.59170  0.71020  Biso   1.000  H
  C53      1.0000 0.85882  0.82320  0.80218  Biso   1.000  C
  H35      1.0000 0.88620  0.89920  0.82510  Biso   1.000  H
  C54      1.0000 0.93462  0.25780  0.08237  Biso   1.000  C
  H36      1.0000 0.94000  0.28810  0.04930  Biso   1.000  H
  N13      1.0000 0.04458  0.22980  0.33198  Biso   1.000  N
  C55      1.0000 0.10682  0.14790  0.35313  Biso   1.000  C
  H37      1.0000 0.13650  0.08790  0.33450  Biso   1.000  H
  C56      1.0000 0.01856  0.29990  0.37254  Biso   1.000  C
  H38      1.0000 0.97520  0.36640  0.36940  Biso   1.000  H
  O4       1.0000 0.37060  0.88900  0.53970  Biso   1.000  O
  N14      1.0000 0.12255  0.16120  0.40515  Biso   1.000  N
  N15      1.0000 0.21165  0.76680  0.69533  Biso   1.000  N
  N16      1.0000 0.11559  0.75760  0.73681  Biso   1.000  N
  C57      1.0000 0.25771  0.08350  0.42399  Biso   1.000  C
  H39      1.0000 0.26140  0.12510  0.39180  Biso   1.000  H
  C58      1.0000 0.32192  0.01520  0.45527  Biso   1.000  C
  H40      1.0000 0.36880  0.00730  0.44480  Biso   1.000  H
  C59      1.0000 0.31282  0.95900  0.50312  Biso   1.000  C
  C60      1.0000 0.24334  0.96860  0.52000  Biso   1.000  C
  C61      1.0000 0.17872  0.03480  0.48768  Biso   1.000  C
  H41      1.0000 0.13160  0.04070  0.49780  Biso   1.000  H
  C62      1.0000 0.18725  0.09160  0.43963  Biso   1.000  C
  C63      1.0000 0.25978  0.90080  0.57197  Biso   1.000  C
  C64      1.0000 0.33747  0.85670  0.58155  Biso   1.000  C
  C65      1.0000 0.37558  0.79110  0.62769  Biso   1.000  C
  H42      1.0000 0.42760  0.76440  0.63340  Biso   1.000  H
  C66      1.0000 0.33251  0.76660  0.66548  Biso   1.000  C
  H43      1.0000 0.35640  0.72500  0.69760  Biso   1.000  H
  C67      1.0000 0.25416  0.80320  0.65602  Biso   1.000  C
  C68      1.0000 0.21653  0.87130  0.60949  Biso   1.000  C
  H44      1.0000 0.16430  0.89650  0.60360  Biso   1.000  H
  C69      1.0000 0.23260  0.65810  0.73581  Biso   1.000  C
  H45      1.0000 0.27840  0.59900  0.74430  Biso   1.000  H
  C70      1.0000 0.17326  0.65480  0.76069  Biso   1.000  C
  H46      1.0000 0.17170  0.59170  0.78980  Biso   1.000  H
  C71      1.0000 0.14118  0.82320  0.69782  Biso   1.000  C
  H47      1.0000 0.11380  0.89920  0.67490  Biso   1.000  H
  C72      1.0000 0.06538  0.25780  0.41763  Biso   1.000  C
  H48      1.0000 0.06000  0.28810  0.45070  Biso   1.000  H
  Co1      1.0000 0.00000  0.23591  0.25000  Biso   1.000  Co
  Co2      1.0000 0.00000  0.76409  0.75000  Biso   1.000  Co
  N17      1.0000 0.54458  0.27020  0.83198  Biso   1.000  N
  C73      1.0000 0.60682  0.35210  0.85313  Biso   1.000  C
  H49      1.0000 0.63650  0.41210  0.83450  Biso   1.000  H
  C74      1.0000 0.51856  0.20010  0.87254  Biso   1.000  C
  H50      1.0000 0.47520  0.13360  0.86940  Biso   1.000  H
  O5       1.0000 0.87060  0.61100  0.03970  Biso   1.000  O
  N18      1.0000 0.62255  0.33880  0.90515  Biso   1.000  N
  N19      1.0000 0.71165  0.73320  0.19533  Biso   1.000  N
  N20      1.0000 0.61559  0.74240  0.23681  Biso   1.000  N
  C75      1.0000 0.75771  0.41650  0.92399  Biso   1.000  C
  H51      1.0000 0.76140  0.37490  0.89180  Biso   1.000  H
  C76      1.0000 0.82192  0.48480  0.95527  Biso   1.000  C
  H52      1.0000 0.86880  0.49270  0.94480  Biso   1.000  H
  C77      1.0000 0.81282  0.54100  0.00312  Biso   1.000  C
  C78      1.0000 0.74334  0.53140  0.02000  Biso   1.000  C
  C79      1.0000 0.67872  0.46520  0.98768  Biso   1.000  C
  H53      1.0000 0.63160  0.45930  0.99780  Biso   1.000  H
  C80      1.0000 0.68725  0.40840  0.93963  Biso   1.000  C
  C81      1.0000 0.75978  0.59920  0.07197  Biso   1.000  C
  C82      1.0000 0.83747  0.64330  0.08155  Biso   1.000  C
  C83      1.0000 0.87558  0.70890  0.12769  Biso   1.000  C
  H54      1.0000 0.92760  0.73560  0.13340  Biso   1.000  H
  C84      1.0000 0.83251  0.73340  0.16548  Biso   1.000  C
  H55      1.0000 0.85640  0.77500  0.19760  Biso   1.000  H
  C85      1.0000 0.75416  0.69680  0.15602  Biso   1.000  C
  C86      1.0000 0.71653  0.62870  0.10949  Biso   1.000  C
  H56      1.0000 0.66430  0.60350  0.10360  Biso   1.000  H
  C87      1.0000 0.73260  0.84190  0.23581  Biso   1.000  C
  H57      1.0000 0.77840  0.90100  0.24430  Biso   1.000  H
  C88      1.0000 0.67326  0.84520  0.26069  Biso   1.000  C
  H58      1.0000 0.67170  0.90830  0.28980  Biso   1.000  H
  C89      1.0000 0.64118  0.67680  0.19782  Biso   1.000  C
  H59      1.0000 0.61380  0.60080  0.17490  Biso   1.000  H
  C90      1.0000 0.56538  0.24220  0.91763  Biso   1.000  C
  H60      1.0000 0.56000  0.21190  0.95070  Biso   1.000  H
  N21      1.0000 0.45542  0.27020  0.66802  Biso   1.000  N
  C91      1.0000 0.39318  0.35210  0.64687  Biso   1.000  C
  H61      1.0000 0.36350  0.41210  0.66550  Biso   1.000  H
  C92      1.0000 0.48144  0.20010  0.62746  Biso   1.000  C
  H62      1.0000 0.52480  0.13360  0.63060  Biso   1.000  H
  O6       1.0000 0.12940  0.61100  0.46030  Biso   1.000  O
  N22      1.0000 0.37745  0.33880  0.59485  Biso   1.000  N
  N23      1.0000 0.28835  0.73320  0.30467  Biso   1.000  N
  N24      1.0000 0.38441  0.74240  0.26319  Biso   1.000  N
  C93      1.0000 0.24229  0.41650  0.57601  Biso   1.000  C
  H63      1.0000 0.23860  0.37490  0.60820  Biso   1.000  H
  C94      1.0000 0.17808  0.48480  0.54473  Biso   1.000  C
  H64      1.0000 0.13120  0.49270  0.55520  Biso   1.000  H
  C95      1.0000 0.18718  0.54100  0.49688  Biso   1.000  C
  C96      1.0000 0.25666  0.53140  0.48000  Biso   1.000  C
  C97      1.0000 0.32128  0.46520  0.51232  Biso   1.000  C
  H65      1.0000 0.36840  0.45930  0.50220  Biso   1.000  H
  C98      1.0000 0.31275  0.40840  0.56037  Biso   1.000  C
  C99      1.0000 0.24022  0.59920  0.42803  Biso   1.000  C
  C100     1.0000 0.16253  0.64330  0.41845  Biso   1.000  C
  C101     1.0000 0.12442  0.70890  0.37231  Biso   1.000  C
  H66      1.0000 0.07240  0.73560  0.36660  Biso   1.000  H
  C102     1.0000 0.16749  0.73340  0.33452  Biso   1.000  C
  H67      1.0000 0.14360  0.77500  0.30240  Biso   1.000  H
  C103     1.0000 0.24584  0.69680  0.34398  Biso   1.000  C
  C104     1.0000 0.28347  0.62870  0.39051  Biso   1.000  C
  H68      1.0000 0.33570  0.60350  0.39640  Biso   1.000  H
  C105     1.0000 0.26740  0.84190  0.26419  Biso   1.000  C
  H69      1.0000 0.22160  0.90100  0.25570  Biso   1.000  H
  C106     1.0000 0.32674  0.84520  0.23931  Biso   1.000  C
  H70      1.0000 0.32830  0.90830  0.21020  Biso   1.000  H
  C107     1.0000 0.35882  0.67680  0.30218  Biso   1.000  C
  H71      1.0000 0.38620  0.60080  0.32510  Biso   1.000  H
  C108     1.0000 0.43462  0.24220  0.58237  Biso   1.000  C
  H72      1.0000 0.44000  0.21190  0.54930  Biso   1.000  H
  N25      1.0000 0.45542  0.72980  0.16802  Biso   1.000  N
  C109     1.0000 0.39318  0.64790  0.14687  Biso   1.000  C
  H73      1.0000 0.36350  0.58790  0.16550  Biso   1.000  H
  C110     1.0000 0.48144  0.79990  0.12746  Biso   1.000  C
  H74      1.0000 0.52480  0.86640  0.13060  Biso   1.000  H
  O7       1.0000 0.12940  0.38900  0.96030  Biso   1.000  O
  N26      1.0000 0.37745  0.66120  0.09485  Biso   1.000  N
  N27      1.0000 0.28835  0.26680  0.80467  Biso   1.000  N
  N28      1.0000 0.38441  0.25760  0.76319  Biso   1.000  N
  C111     1.0000 0.24229  0.58350  0.07601  Biso   1.000  C
  H75      1.0000 0.23860  0.62510  0.10820  Biso   1.000  H
  C112     1.0000 0.17808  0.51520  0.04473  Biso   1.000  C
  H76      1.0000 0.13120  0.50730  0.05520  Biso   1.000  H
  C113     1.0000 0.18718  0.45900  0.99688  Biso   1.000  C
  C114     1.0000 0.25666  0.46860  0.98000  Biso   1.000  C
  C115     1.0000 0.32128  0.53480  0.01232  Biso   1.000  C
  H77      1.0000 0.36840  0.54070  0.00220  Biso   1.000  H
  C116     1.0000 0.31275  0.59160  0.06037  Biso   1.000  C
  C117     1.0000 0.24022  0.40080  0.92803  Biso   1.000  C
  C118     1.0000 0.16253  0.35670  0.91845  Biso   1.000  C
  C119     1.0000 0.12442  0.29110  0.87231  Biso   1.000  C
  H78      1.0000 0.07240  0.26440  0.86660  Biso   1.000  H
  C120     1.0000 0.16749  0.26660  0.83452  Biso   1.000  C
  H79      1.0000 0.14360  0.22500  0.80240  Biso   1.000  H
  C121     1.0000 0.24584  0.30320  0.84398  Biso   1.000  C
  C122     1.0000 0.28347  0.37130  0.89051  Biso   1.000  C
  H80      1.0000 0.33570  0.39650  0.89640  Biso   1.000  H
  C123     1.0000 0.26740  0.15810  0.76419  Biso   1.000  C
  H81      1.0000 0.22160  0.09900  0.75570  Biso   1.000  H
  C124     1.0000 0.32674  0.15480  0.73931  Biso   1.000  C
  H82      1.0000 0.32830  0.09170  0.71020  Biso   1.000  H
  C125     1.0000 0.35882  0.32320  0.80218  Biso   1.000  C
  H83      1.0000 0.38620  0.39920  0.82510  Biso   1.000  H
  C126     1.0000 0.43462  0.75780  0.08237  Biso   1.000  C
  H84      1.0000 0.44000  0.78810  0.04930  Biso   1.000  H
  N29      1.0000 0.54458  0.72980  0.33198  Biso   1.000  N
  C127     1.0000 0.60682  0.64790  0.35313  Biso   1.000  C
  H85      1.0000 0.63650  0.58790  0.33450  Biso   1.000  H
  C128     1.0000 0.51856  0.79990  0.37254  Biso   1.000  C
  H86      1.0000 0.47520  0.86640  0.36940  Biso   1.000  H
  O8       1.0000 0.87060  0.38900  0.53970  Biso   1.000  O
  N30      1.0000 0.62255  0.66120  0.40515  Biso   1.000  N
  N31      1.0000 0.71165  0.26680  0.69533  Biso   1.000  N
  N32      1.0000 0.61559  0.25760  0.73681  Biso   1.000  N
  C129     1.0000 0.75771  0.58350  0.42399  Biso   1.000  C
  H87      1.0000 0.76140  0.62510  0.39180  Biso   1.000  H
  C130     1.0000 0.82192  0.51520  0.45527  Biso   1.000  C
  H88      1.0000 0.86880  0.50730  0.44480  Biso   1.000  H
  C131     1.0000 0.81282  0.45900  0.50312  Biso   1.000  C
  C132     1.0000 0.74334  0.46860  0.52000  Biso   1.000  C
  C133     1.0000 0.67872  0.53480  0.48768  Biso   1.000  C
  H89      1.0000 0.63160  0.54070  0.49780  Biso   1.000  H
  C134     1.0000 0.68725  0.59160  0.43963  Biso   1.000  C
  C135     1.0000 0.75978  0.40080  0.57197  Biso   1.000  C
  C136     1.0000 0.83747  0.35670  0.58155  Biso   1.000  C
  C137     1.0000 0.87558  0.29110  0.62769  Biso   1.000  C
  H90      1.0000 0.92760  0.26440  0.63340  Biso   1.000  H
  C138     1.0000 0.83251  0.26660  0.66548  Biso   1.000  C
  H91      1.0000 0.85640  0.22500  0.69760  Biso   1.000  H
  C139     1.0000 0.75416  0.30320  0.65602  Biso   1.000  C
  C140     1.0000 0.71653  0.37130  0.60949  Biso   1.000  C
  H92      1.0000 0.66430  0.39650  0.60360  Biso   1.000  H
  C141     1.0000 0.73260  0.15810  0.73581  Biso   1.000  C
  H93      1.0000 0.77840  0.09900  0.74430  Biso   1.000  H
  C142     1.0000 0.67326  0.15480  0.76069  Biso   1.000  C
  H94      1.0000 0.67170  0.09170  0.78980  Biso   1.000  H
  C143     1.0000 0.64118  0.32320  0.69782  Biso   1.000  C
  H95      1.0000 0.61380  0.39920  0.67490  Biso   1.000  H
  C144     1.0000 0.56538  0.75780  0.41763  Biso   1.000  C
  H96      1.0000 0.56000  0.78810  0.45070  Biso   1.000  H
  Co3      1.0000 0.50000  0.73591  0.25000  Biso   1.000  Co
  Co4      1.0000 0.50000  0.26409  0.75000  Biso   1.000  Co
