data_image0
_cell_length_a       23.945
_cell_length_b       23.945
_cell_length_c       17.1792
_cell_angle_alpha    90
_cell_angle_beta     90
_cell_angle_gamma    120

_symmetry_space_group_name_H-M    "P 1"
_symmetry_int_tables_number       1

loop_
  _symmetry_equiv_pos_as_xyz
  'x, y, z'

loop_
  _atom_site_label
  _atom_site_occupancy
  _atom_site_fract_x
  _atom_site_fract_y
  _atom_site_fract_z
  _atom_site_thermal_displace_type
  _atom_site_B_iso_or_equiv
  _atom_site_type_symbol
  Co1      1.0000 0.27151  0.41502  0.88882  Biso   1.000  Co
  Co2      1.0000 0.38641  0.55617  0.79826  Biso   1.000  Co
  Co3      1.0000 0.17430  0.45241  0.00279  Biso   1.000  Co
  Co4      1.0000 0.17776  0.31282  0.74049  Biso   1.000  Co
  O1       1.0000 0.30270  0.51520  0.88490  Biso   1.000  O
  O2       1.0000 0.23040  0.53670  0.93960  Biso   1.000  O
  O3       1.0000 0.44940  0.63060  0.72310  Biso   1.000  O
  O4       1.0000 0.47220  0.72600  0.67390  Biso   1.000  O
  O5       1.0000 0.17660  0.39530  0.90020  Biso   1.000  O
  O6       1.0000 0.11690  0.34150  0.79520  Biso   1.000  O
  O7       1.0000 0.13320  0.49940  0.06410  Biso   1.000  O
  O8       1.0000 0.04410  0.50710  0.07100  Biso   1.000  O
  O9       1.0000 0.25890  0.41210  0.76670  Biso   1.000  O
  O10      1.0000 0.31420  0.51070  0.71280  Biso   1.000  O
  O11      1.0000 0.10110  0.24860  0.66550  Biso   1.000  O
  O12      1.0000 0.06360  0.23700  0.54760  Biso   1.000  O
  O13      1.0000 0.27820  0.40990  0.00600  Biso   1.000  O
  O14      1.0000 0.25020  0.47270  0.07020  Biso   1.000  O
  O15      1.0000 0.44120  0.36650  0.11850  Biso   1.000  O
  O16      1.0000 0.49230  0.41630  0.22740  Biso   1.000  O
  O17      1.0000 0.31970  0.24190  0.12500  Biso   1.000  O
  O18      1.0000 0.25250  0.31900  0.88850  Biso   1.000  O
  O19      1.0000 0.24770  0.16710  0.18010  Biso   1.000  O
  O20      1.0000 0.14530  0.24690  0.83290  Biso   1.000  O
  O21      1.0000 0.25000  0.29660  0.68930  Biso   1.000  O
  H1       1.0000 0.24040  0.26320  0.65530  Biso   1.000  H
  H2       1.0000 0.27770  0.28770  0.71720  Biso   1.000  H
  O22      1.0000 0.22590  0.27570  0.68260  Biso   1.000  O
  N1       1.0000 0.35910  0.62490  0.80990  Biso   1.000  N
  N2       1.0000 0.09040  0.42510  0.94180  Biso   1.000  N
  N3       1.0000 0.18600  0.36670  0.64590  Biso   1.000  N
  N4       1.0000 0.29710  0.24160  0.65190  Biso   1.000  N
  C1       1.0000 0.31040  0.61540  0.85610  Biso   1.000  C
  C2       1.0000 0.29390  0.66230  0.86610  Biso   1.000  C
  H3       1.0000 0.26170  0.65640  0.90280  Biso   1.000  H
  C3       1.0000 0.32370  0.71670  0.82330  Biso   1.000  C
  H4       1.0000 0.31260  0.74940  0.82860  Biso   1.000  H
  C4       1.0000 0.37230  0.72390  0.77010  Biso   1.000  C
  H5       1.0000 0.39210  0.76010  0.73620  Biso   1.000  H
  C5       1.0000 0.38990  0.67810  0.76860  Biso   1.000  C
  C6       1.0000 0.27860  0.55070  0.89430  Biso   1.000  C
  C7       1.0000 0.44090  0.67890  0.71800  Biso   1.000  C
  C8       1.0000 0.07440  0.38580  0.88220  Biso   1.000  C
  C9       1.0000 0.01520  0.36400  0.84590  Biso   1.000  C
  H6       1.0000 0.00380  0.33700  0.80140  Biso   1.000  H
  C10      1.0000 0.97260  0.38270  0.87630  Biso   1.000  C
  H7       1.0000 0.93130  0.36720  0.85340  Biso   1.000  H
  C11      1.0000 0.99040  0.42270  0.93780  Biso   1.000  C
  H8       1.0000 0.96190  0.43560  0.95870  Biso   1.000  H
  C12      1.0000 0.05100  0.44480  0.97060  Biso   1.000  C
  C13      1.0000 0.12560  0.37170  0.85630  Biso   1.000  C
  C14      1.0000 0.07840  0.48770  0.04070  Biso   1.000  C
  C15      1.0000 0.22990  0.42840  0.64070  Biso   1.000  C
  C16      1.0000 0.23450  0.46330  0.57580  Biso   1.000  C
  H9       1.0000 0.26500  0.50810  0.57360  Biso   1.000  H
  C17      1.0000 0.19470  0.43310  0.51390  Biso   1.000  C
  H10      1.0000 0.19890  0.45700  0.46810  Biso   1.000  H
  C18      1.0000 0.14890  0.36880  0.51710  Biso   1.000  C
  H11      1.0000 0.12170  0.34720  0.47400  Biso   1.000  H
  C19      1.0000 0.14470  0.33810  0.58360  Biso   1.000  C
  C20      1.0000 0.27080  0.45300  0.71240  Biso   1.000  C
  C21      1.0000 0.09830  0.26790  0.59960  Biso   1.000  C
  C22      1.0000 0.32300  0.44690  0.13050  Biso   1.000  C
  C23      1.0000 0.36440  0.42300  0.12380  Biso   1.000  C
  H12      1.0000 0.36530  0.40260  0.07670  Biso   1.000  H
  C24      1.0000 0.40550  0.42820  0.18530  Biso   1.000  C
  C25      1.0000 0.40430  0.45950  0.25250  Biso   1.000  C
  H13      1.0000 0.43290  0.46510  0.29400  Biso   1.000  H
  C26      1.0000 0.36200  0.48280  0.25970  Biso   1.000  C
  H14      1.0000 0.36040  0.50250  0.30700  Biso   1.000  H
  C27      1.0000 0.32240  0.47770  0.19910  Biso   1.000  C
  H15      1.0000 0.29460  0.49520  0.20380  Biso   1.000  H
  C28      1.0000 0.28000  0.44210  0.06360  Biso   1.000  C
  C29      1.0000 0.45030  0.40180  0.17580  Biso   1.000  C
  C30      1.0000 0.17950  0.22300  0.94780  Biso   1.000  C
  C31      1.0000 0.11530  0.18160  0.96740  Biso   1.000  C
  H16      1.0000 0.08220  0.17310  0.93090  Biso   1.000  H
  C32      1.0000 0.09970  0.15260  0.04030  Biso   1.000  C
  H17      1.0000 0.05580  0.12430  0.05360  Biso   1.000  H
  C33      1.0000 0.14810  0.16500  0.09370  Biso   1.000  C
  H18      1.0000 0.13740  0.14520  0.14350  Biso   1.000  H
  C34      1.0000 0.21230  0.20640  0.07410  Biso   1.000  C
  C35      1.0000 0.22800  0.23540  0.00120  Biso   1.000  C
  H19      1.0000 0.27180  0.26370  0.98790  Biso   1.000  H
  C36      1.0000 0.26550  0.20960  0.12500  Biso   1.000  C
  C37      1.0000 0.19100  0.26700  0.88200  Biso   1.000  C
  C38      1.0000 0.27070  0.27060  0.70400  Biso   1.000  C
  H20      1.0000 0.28880  0.28530  0.75440  Biso   1.000  H
  C39      1.0000 0.26870  0.21620  0.59600  Biso   1.000  C
  H21      1.0000 0.24050  0.23340  0.58210  Biso   1.000  H
  H22      1.0000 0.24250  0.16980  0.60600  Biso   1.000  H
  H23      1.0000 0.29890  0.22390  0.55380  Biso   1.000  H
  C40      1.0000 0.34300  0.22280  0.68710  Biso   1.000  C
  H24      1.0000 0.38570  0.26120  0.69270  Biso   1.000  H
  H25      1.0000 0.34600  0.19160  0.65310  Biso   1.000  H
  H26      1.0000 0.32700  0.20340  0.73840  Biso   1.000  H
  Co5      1.0000 0.41502  0.27151  0.11118  Biso   1.000  Co
  Co6      1.0000 0.55617  0.38641  0.20174  Biso   1.000  Co
  Co7      1.0000 0.45241  0.17430  0.99721  Biso   1.000  Co
  Co8      1.0000 0.31282  0.17776  0.25951  Biso   1.000  Co
  O23      1.0000 0.51520  0.30270  0.11510  Biso   1.000  O
  O24      1.0000 0.53670  0.23040  0.06040  Biso   1.000  O
  O25      1.0000 0.63060  0.44940  0.27690  Biso   1.000  O
  O26      1.0000 0.72600  0.47220  0.32610  Biso   1.000  O
  O27      1.0000 0.39530  0.17660  0.09980  Biso   1.000  O
  O28      1.0000 0.34150  0.11690  0.20480  Biso   1.000  O
  O29      1.0000 0.49940  0.13320  0.93590  Biso   1.000  O
  O30      1.0000 0.50710  0.04410  0.92900  Biso   1.000  O
  O31      1.0000 0.41210  0.25890  0.23330  Biso   1.000  O
  O32      1.0000 0.51070  0.31420  0.28720  Biso   1.000  O
  O33      1.0000 0.24860  0.10110  0.33450  Biso   1.000  O
  O34      1.0000 0.23700  0.06360  0.45240  Biso   1.000  O
  O35      1.0000 0.40990  0.27820  0.99400  Biso   1.000  O
  O36      1.0000 0.47270  0.25020  0.92980  Biso   1.000  O
  O37      1.0000 0.36650  0.44120  0.88150  Biso   1.000  O
  O38      1.0000 0.41630  0.49230  0.77260  Biso   1.000  O
  O39      1.0000 0.24190  0.31970  0.87500  Biso   1.000  O
  O40      1.0000 0.31900  0.25250  0.11150  Biso   1.000  O
  O41      1.0000 0.16710  0.24770  0.81990  Biso   1.000  O
  O42      1.0000 0.24690  0.14530  0.16710  Biso   1.000  O
  O43      1.0000 0.29660  0.25000  0.31070  Biso   1.000  O
  H27      1.0000 0.26320  0.24040  0.34470  Biso   1.000  H
  H28      1.0000 0.28770  0.27770  0.28280  Biso   1.000  H
  O44      1.0000 0.27570  0.22590  0.31740  Biso   1.000  O
  N5       1.0000 0.62490  0.35910  0.19010  Biso   1.000  N
  N6       1.0000 0.42510  0.09040  0.05820  Biso   1.000  N
  N7       1.0000 0.36670  0.18600  0.35410  Biso   1.000  N
  N8       1.0000 0.24160  0.29710  0.34810  Biso   1.000  N
  C41      1.0000 0.61540  0.31040  0.14390  Biso   1.000  C
  C42      1.0000 0.66230  0.29390  0.13390  Biso   1.000  C
  H29      1.0000 0.65640  0.26170  0.09720  Biso   1.000  H
  C43      1.0000 0.71670  0.32370  0.17670  Biso   1.000  C
  H30      1.0000 0.74940  0.31260  0.17140  Biso   1.000  H
  C44      1.0000 0.72390  0.37230  0.22990  Biso   1.000  C
  H31      1.0000 0.76010  0.39210  0.26380  Biso   1.000  H
  C45      1.0000 0.67810  0.38990  0.23140  Biso   1.000  C
  C46      1.0000 0.55070  0.27860  0.10570  Biso   1.000  C
  C47      1.0000 0.67890  0.44090  0.28200  Biso   1.000  C
  C48      1.0000 0.38580  0.07440  0.11780  Biso   1.000  C
  C49      1.0000 0.36400  0.01520  0.15410  Biso   1.000  C
  H32      1.0000 0.33700  0.00380  0.19860  Biso   1.000  H
  C50      1.0000 0.38270  0.97260  0.12370  Biso   1.000  C
  H33      1.0000 0.36720  0.93130  0.14660  Biso   1.000  H
  C51      1.0000 0.42270  0.99040  0.06220  Biso   1.000  C
  H34      1.0000 0.43560  0.96190  0.04130  Biso   1.000  H
  C52      1.0000 0.44480  0.05100  0.02940  Biso   1.000  C
  C53      1.0000 0.37170  0.12560  0.14370  Biso   1.000  C
  C54      1.0000 0.48770  0.07840  0.95930  Biso   1.000  C
  C55      1.0000 0.42840  0.22990  0.35930  Biso   1.000  C
  C56      1.0000 0.46330  0.23450  0.42420  Biso   1.000  C
  H35      1.0000 0.50810  0.26500  0.42640  Biso   1.000  H
  C57      1.0000 0.43310  0.19470  0.48610  Biso   1.000  C
  H36      1.0000 0.45700  0.19890  0.53190  Biso   1.000  H
  C58      1.0000 0.36880  0.14890  0.48290  Biso   1.000  C
  H37      1.0000 0.34720  0.12170  0.52600  Biso   1.000  H
  C59      1.0000 0.33810  0.14470  0.41640  Biso   1.000  C
  C60      1.0000 0.45300  0.27080  0.28760  Biso   1.000  C
  C61      1.0000 0.26790  0.09830  0.40040  Biso   1.000  C
  C62      1.0000 0.44690  0.32300  0.86950  Biso   1.000  C
  C63      1.0000 0.42300  0.36440  0.87620  Biso   1.000  C
  H38      1.0000 0.40260  0.36530  0.92330  Biso   1.000  H
  C64      1.0000 0.42820  0.40550  0.81470  Biso   1.000  C
  C65      1.0000 0.45950  0.40430  0.74750  Biso   1.000  C
  H39      1.0000 0.46510  0.43290  0.70600  Biso   1.000  H
  C66      1.0000 0.48280  0.36200  0.74030  Biso   1.000  C
  H40      1.0000 0.50250  0.36040  0.69300  Biso   1.000  H
  C67      1.0000 0.47770  0.32240  0.80090  Biso   1.000  C
  H41      1.0000 0.49520  0.29460  0.79620  Biso   1.000  H
  C68      1.0000 0.44210  0.28000  0.93640  Biso   1.000  C
  C69      1.0000 0.40180  0.45030  0.82420  Biso   1.000  C
  C70      1.0000 0.22300  0.17950  0.05220  Biso   1.000  C
  C71      1.0000 0.18160  0.11530  0.03260  Biso   1.000  C
  H42      1.0000 0.17310  0.08220  0.06910  Biso   1.000  H
  C72      1.0000 0.15260  0.09970  0.95970  Biso   1.000  C
  H43      1.0000 0.12430  0.05580  0.94640  Biso   1.000  H
  C73      1.0000 0.16500  0.14810  0.90630  Biso   1.000  C
  H44      1.0000 0.14520  0.13740  0.85650  Biso   1.000  H
  C74      1.0000 0.20640  0.21230  0.92590  Biso   1.000  C
  C75      1.0000 0.23540  0.22800  0.99880  Biso   1.000  C
  H45      1.0000 0.26370  0.27180  0.01210  Biso   1.000  H
  C76      1.0000 0.20960  0.26550  0.87500  Biso   1.000  C
  C77      1.0000 0.26700  0.19100  0.11800  Biso   1.000  C
  C78      1.0000 0.27060  0.27070  0.29600  Biso   1.000  C
  H46      1.0000 0.28530  0.28880  0.24560  Biso   1.000  H
  C79      1.0000 0.21620  0.26870  0.40400  Biso   1.000  C
  H47      1.0000 0.23340  0.24050  0.41790  Biso   1.000  H
  H48      1.0000 0.16980  0.24250  0.39400  Biso   1.000  H
  H49      1.0000 0.22390  0.29890  0.44620  Biso   1.000  H
  C80      1.0000 0.22280  0.34300  0.31290  Biso   1.000  C
  H50      1.0000 0.26120  0.38570  0.30730  Biso   1.000  H
  H51      1.0000 0.19160  0.34600  0.34690  Biso   1.000  H
  H52      1.0000 0.20340  0.32700  0.26160  Biso   1.000  H
  Co9      1.0000 0.58498  0.85649  0.22215  Biso   1.000  Co
  Co10     1.0000 0.44383  0.83024  0.13159  Biso   1.000  Co
  Co11     1.0000 0.54759  0.72189  0.33612  Biso   1.000  Co
  Co12     1.0000 0.68718  0.86494  0.07382  Biso   1.000  Co
  O45      1.0000 0.48480  0.78750  0.21823  Biso   1.000  O
  O46      1.0000 0.46330  0.69370  0.27293  Biso   1.000  O
  O47      1.0000 0.36940  0.81880  0.05643  Biso   1.000  O
  O48      1.0000 0.27400  0.74620  0.00723  Biso   1.000  O
  O49      1.0000 0.60470  0.78130  0.23353  Biso   1.000  O
  O50      1.0000 0.65850  0.77540  0.12853  Biso   1.000  O
  O51      1.0000 0.50060  0.63380  0.39743  Biso   1.000  O
  O52      1.0000 0.49290  0.53700  0.40433  Biso   1.000  O
  O53      1.0000 0.58790  0.84680  0.10003  Biso   1.000  O
  O54      1.0000 0.48930  0.80350  0.04613  Biso   1.000  O
  O55      1.0000 0.75140  0.85250  0.99883  Biso   1.000  O
  O56      1.0000 0.76300  0.82660  0.88093  Biso   1.000  O
  O57      1.0000 0.59010  0.86830  0.33933  Biso   1.000  O
  O58      1.0000 0.52730  0.77750  0.40353  Biso   1.000  O
  O59      1.0000 0.63350  0.07470  0.45183  Biso   1.000  O
  O60      1.0000 0.58370  0.07600  0.56073  Biso   1.000  O
  O61      1.0000 0.75810  0.07780  0.45833  Biso   1.000  O
  O62      1.0000 0.68100  0.93350  0.22183  Biso   1.000  O
  O63      1.0000 0.83290  0.08060  0.51343  Biso   1.000  O
  O64      1.0000 0.75310  0.89840  0.16623  Biso   1.000  O
  O65      1.0000 0.70340  0.95340  0.02263  Biso   1.000  O
  H53      1.0000 0.73680  0.97720  0.98863  Biso   1.000  H
  H54      1.0000 0.71230  0.99000  0.05053  Biso   1.000  H
  O66      1.0000 0.72430  0.95020  0.01593  Biso   1.000  O
  N9       1.0000 0.37510  0.73420  0.14323  Biso   1.000  N
  N10      1.0000 0.57490  0.66530  0.27513  Biso   1.000  N
  N11      1.0000 0.63330  0.81930  0.97923  Biso   1.000  N
  N12      1.0000 0.75840  0.05550  0.98523  Biso   1.000  N
  C81      1.0000 0.38460  0.69500  0.18943  Biso   1.000  C
  C82      1.0000 0.33770  0.63160  0.19943  Biso   1.000  C
  H55      1.0000 0.34360  0.60530  0.23613  Biso   1.000  H
  C83      1.0000 0.28330  0.60700  0.15663  Biso   1.000  C
  H56      1.0000 0.25060  0.56320  0.16193  Biso   1.000  H
  C84      1.0000 0.27610  0.64840  0.10343  Biso   1.000  C
  H57      1.0000 0.23990  0.63200  0.06953  Biso   1.000  H
  C85      1.0000 0.32190  0.71180  0.10193  Biso   1.000  C
  C86      1.0000 0.44930  0.72790  0.22763  Biso   1.000  C
  C87      1.0000 0.32110  0.76200  0.05133  Biso   1.000  C
  C88      1.0000 0.61420  0.68860  0.21553  Biso   1.000  C
  C89      1.0000 0.63600  0.65120  0.17923  Biso   1.000  C
  H58      1.0000 0.66300  0.66680  0.13473  Biso   1.000  H
  C90      1.0000 0.61730  0.58990  0.20963  Biso   1.000  C
  H59      1.0000 0.63280  0.56410  0.18673  Biso   1.000  H
  C91      1.0000 0.57730  0.56770  0.27113  Biso   1.000  C
  H60      1.0000 0.56440  0.52630  0.29203  Biso   1.000  H
  C92      1.0000 0.55520  0.60620  0.30393  Biso   1.000  C
  C93      1.0000 0.62830  0.75390  0.18963  Biso   1.000  C
  C94      1.0000 0.51230  0.59070  0.37403  Biso   1.000  C
  C95      1.0000 0.57160  0.80150  0.97403  Biso   1.000  C
  C96      1.0000 0.53670  0.77120  0.90913  Biso   1.000  C
  H61      1.0000 0.49190  0.75690  0.90693  Biso   1.000  H
  C97      1.0000 0.56690  0.76160  0.84723  Biso   1.000  C
  H62      1.0000 0.54300  0.74190  0.80143  Biso   1.000  H
  C98      1.0000 0.63120  0.78010  0.85043  Biso   1.000  C
  H63      1.0000 0.65280  0.77450  0.80733  Biso   1.000  H
  C99      1.0000 0.66190  0.80660  0.91693  Biso   1.000  C
  C100     1.0000 0.54700  0.81780  0.04573  Biso   1.000  C
  C101     1.0000 0.73210  0.83040  0.93293  Biso   1.000  C
  C102     1.0000 0.55310  0.87610  0.46383  Biso   1.000  C
  C103     1.0000 0.57700  0.94140  0.45713  Biso   1.000  C
  H64      1.0000 0.59740  0.96270  0.41003  Biso   1.000  H
  C104     1.0000 0.57180  0.97730  0.51863  Biso   1.000  C
  C105     1.0000 0.54050  0.94480  0.58583  Biso   1.000  C
  H65      1.0000 0.53490  0.96780  0.62733  Biso   1.000  H
  C106     1.0000 0.51720  0.87920  0.59303  Biso   1.000  C
  H66      1.0000 0.49750  0.85790  0.64033  Biso   1.000  H
  C107     1.0000 0.52230  0.84470  0.53243  Biso   1.000  C
  H67      1.0000 0.50480  0.79940  0.53713  Biso   1.000  H
  C108     1.0000 0.55790  0.83790  0.39693  Biso   1.000  C
  C109     1.0000 0.59820  0.04850  0.50913  Biso   1.000  C
  C110     1.0000 0.77700  0.95650  0.28113  Biso   1.000  C
  C111     1.0000 0.81840  0.93370  0.30073  Biso   1.000  C
  H68      1.0000 0.82690  0.90910  0.26423  Biso   1.000  H
  C112     1.0000 0.84740  0.94710  0.37363  Biso   1.000  C
  H69      1.0000 0.87570  0.93150  0.38693  Biso   1.000  H
  C113     1.0000 0.83500  0.98310  0.42703  Biso   1.000  C
  H70      1.0000 0.85480  0.99220  0.47683  Biso   1.000  H
  C114     1.0000 0.79360  0.00590  0.40743  Biso   1.000  C
  C115     1.0000 0.76460  0.99260  0.33453  Biso   1.000  C
  H71      1.0000 0.73630  0.00810  0.32123  Biso   1.000  H
  C116     1.0000 0.79040  0.05590  0.45833  Biso   1.000  C
  C117     1.0000 0.73300  0.92400  0.21533  Biso   1.000  C
  C118     1.0000 0.72940  0.00010  0.03733  Biso   1.000  C
  H72      1.0000 0.71470  0.00350  0.08773  Biso   1.000  H
  C119     1.0000 0.78380  0.05250  0.92933  Biso   1.000  C
  H73      1.0000 0.76660  0.00710  0.91543  Biso   1.000  H
  H74      1.0000 0.83020  0.07270  0.93933  Biso   1.000  H
  H75      1.0000 0.77610  0.07500  0.88713  Biso   1.000  H
  C120     1.0000 0.77720  0.12020  0.02043  Biso   1.000  C
  H76      1.0000 0.73880  0.12450  0.02603  Biso   1.000  H
  H77      1.0000 0.80840  0.15440  0.98643  Biso   1.000  H
  H78      1.0000 0.79660  0.12360  0.07173  Biso   1.000  H
  Co13     1.0000 0.72849  0.14351  0.44451  Biso   1.000  Co
  Co14     1.0000 0.61359  0.16976  0.53507  Biso   1.000  Co
  Co15     1.0000 0.82570  0.27811  0.33054  Biso   1.000  Co
  Co16     1.0000 0.82224  0.13506  0.59284  Biso   1.000  Co
  O67      1.0000 0.69730  0.21250  0.44843  Biso   1.000  O
  O68      1.0000 0.76960  0.30630  0.39373  Biso   1.000  O
  O69      1.0000 0.55060  0.18120  0.61023  Biso   1.000  O
  O70      1.0000 0.52780  0.25380  0.65943  Biso   1.000  O
  O71      1.0000 0.82340  0.21870  0.43313  Biso   1.000  O
  O72      1.0000 0.88310  0.22460  0.53813  Biso   1.000  O
  O73      1.0000 0.86680  0.36620  0.26923  Biso   1.000  O
  O74      1.0000 0.95590  0.46300  0.26233  Biso   1.000  O
  O75      1.0000 0.74110  0.15320  0.56663  Biso   1.000  O
  O76      1.0000 0.68580  0.19650  0.62053  Biso   1.000  O
  O77      1.0000 0.89890  0.14750  0.66783  Biso   1.000  O
  O78      1.0000 0.93640  0.17340  0.78573  Biso   1.000  O
  O79      1.0000 0.72180  0.13170  0.32733  Biso   1.000  O
  O80      1.0000 0.74980  0.22250  0.26313  Biso   1.000  O
  O81      1.0000 0.55880  0.92530  0.21483  Biso   1.000  O
  O82      1.0000 0.50770  0.92400  0.10593  Biso   1.000  O
  O83      1.0000 0.68030  0.92220  0.20833  Biso   1.000  O
  O84      1.0000 0.74750  0.06650  0.44483  Biso   1.000  O
  O85      1.0000 0.75230  0.91940  0.15323  Biso   1.000  O
  O86      1.0000 0.85470  0.10160  0.50043  Biso   1.000  O
  O87      1.0000 0.75000  0.04660  0.64403  Biso   1.000  O
  H79      1.0000 0.75960  0.02280  0.67803  Biso   1.000  H
  H80      1.0000 0.72230  0.01000  0.61613  Biso   1.000  H
  O88      1.0000 0.77410  0.04980  0.65073  Biso   1.000  O
  N13      1.0000 0.64090  0.26580  0.52343  Biso   1.000  N
  N14      1.0000 0.90960  0.33470  0.39153  Biso   1.000  N
  N15      1.0000 0.81400  0.18070  0.68743  Biso   1.000  N
  N16      1.0000 0.70290  0.94450  0.68143  Biso   1.000  N
  C121     1.0000 0.68960  0.30500  0.47723  Biso   1.000  C
  C122     1.0000 0.70610  0.36840  0.46723  Biso   1.000  C
  H81      1.0000 0.73830  0.39470  0.43053  Biso   1.000  H
  C123     1.0000 0.67630  0.39300  0.51003  Biso   1.000  C
  H82      1.0000 0.68740  0.43680  0.50473  Biso   1.000  H
  C124     1.0000 0.62770  0.35160  0.56323  Biso   1.000  C
  H83      1.0000 0.60790  0.36800  0.59713  Biso   1.000  H
  C125     1.0000 0.61010  0.28820  0.56473  Biso   1.000  C
  C126     1.0000 0.72140  0.27210  0.43903  Biso   1.000  C
  C127     1.0000 0.55910  0.23800  0.61533  Biso   1.000  C
  C128     1.0000 0.92560  0.31140  0.45113  Biso   1.000  C
  C129     1.0000 0.98480  0.34880  0.48743  Biso   1.000  C
  H84      1.0000 0.99620  0.33320  0.53193  Biso   1.000  H
  C130     1.0000 0.02740  0.41010  0.45703  Biso   1.000  C
  H85      1.0000 0.06870  0.43590  0.47993  Biso   1.000  H
  C131     1.0000 0.00960  0.43230  0.39553  Biso   1.000  C
  H86      1.0000 0.03810  0.47370  0.37463  Biso   1.000  H
  C132     1.0000 0.94900  0.39380  0.36273  Biso   1.000  C
  C133     1.0000 0.87440  0.24610  0.47703  Biso   1.000  C
  C134     1.0000 0.92160  0.40930  0.29263  Biso   1.000  C
  C135     1.0000 0.77010  0.19850  0.69263  Biso   1.000  C
  C136     1.0000 0.76550  0.22880  0.75753  Biso   1.000  C
  H87      1.0000 0.73500  0.24310  0.75973  Biso   1.000  H
  C137     1.0000 0.80530  0.23840  0.81943  Biso   1.000  C
  H88      1.0000 0.80110  0.25810  0.86523  Biso   1.000  H
  C138     1.0000 0.85110  0.21990  0.81623  Biso   1.000  C
  H89      1.0000 0.87830  0.22550  0.85933  Biso   1.000  H
  C139     1.0000 0.85530  0.19340  0.74973  Biso   1.000  C
  C140     1.0000 0.72920  0.18220  0.62093  Biso   1.000  C
  C141     1.0000 0.90170  0.16960  0.73373  Biso   1.000  C
  C142     1.0000 0.67700  0.12390  0.20283  Biso   1.000  C
  C143     1.0000 0.63560  0.05860  0.20953  Biso   1.000  C
  H90      1.0000 0.63470  0.03730  0.25663  Biso   1.000  H
  C144     1.0000 0.59450  0.02270  0.14803  Biso   1.000  C
  C145     1.0000 0.59570  0.05520  0.08083  Biso   1.000  C
  H91      1.0000 0.56710  0.03220  0.03933  Biso   1.000  H
  C146     1.0000 0.63800  0.12080  0.07363  Biso   1.000  C
  H92      1.0000 0.63960  0.14210  0.02633  Biso   1.000  H
  C147     1.0000 0.67760  0.15530  0.13423  Biso   1.000  C
  H93      1.0000 0.70540  0.20060  0.12953  Biso   1.000  H
  C148     1.0000 0.72000  0.16210  0.26973  Biso   1.000  C
  C149     1.0000 0.54970  0.95150  0.15753  Biso   1.000  C
  C150     1.0000 0.82050  0.04350  0.38553  Biso   1.000  C
  C151     1.0000 0.88470  0.06630  0.36593  Biso   1.000  C
  H94      1.0000 0.91780  0.09090  0.40243  Biso   1.000  H
  C152     1.0000 0.90030  0.05290  0.29303  Biso   1.000  C
  H95      1.0000 0.94420  0.06850  0.27973  Biso   1.000  H
  C153     1.0000 0.85190  0.01690  0.23963  Biso   1.000  C
  H96      1.0000 0.86260  0.00780  0.18983  Biso   1.000  H
  C154     1.0000 0.78770  0.99410  0.25923  Biso   1.000  C
  C155     1.0000 0.77200  0.00740  0.33213  Biso   1.000  C
  H97      1.0000 0.72820  0.99190  0.34543  Biso   1.000  H
  C156     1.0000 0.73450  0.94410  0.20833  Biso   1.000  C
  C157     1.0000 0.80900  0.07600  0.45133  Biso   1.000  C
  C158     1.0000 0.72930  0.99990  0.62933  Biso   1.000  C
  H98      1.0000 0.71120  0.99650  0.57893  Biso   1.000  H
  C159     1.0000 0.73130  0.94750  0.73733  Biso   1.000  C
  H99      1.0000 0.75950  0.99290  0.75123  Biso   1.000  H
  H100     1.0000 0.75750  0.92730  0.72733  Biso   1.000  H
  H101     1.0000 0.70110  0.92500  0.77953  Biso   1.000  H
  C160     1.0000 0.65700  0.87980  0.64623  Biso   1.000  C
  H102     1.0000 0.61430  0.87550  0.64063  Biso   1.000  H
  H103     1.0000 0.65400  0.84560  0.68023  Biso   1.000  H
  H104     1.0000 0.67300  0.87640  0.59493  Biso   1.000  H
  Co17     1.0000 0.14351  0.72849  0.55549  Biso   1.000  Co
  Co18     1.0000 0.16976  0.61359  0.46493  Biso   1.000  Co
  Co19     1.0000 0.27811  0.82570  0.66946  Biso   1.000  Co
  Co20     1.0000 0.13506  0.82224  0.40716  Biso   1.000  Co
  O89      1.0000 0.21250  0.69730  0.55157  Biso   1.000  O
  O90      1.0000 0.30630  0.76960  0.60627  Biso   1.000  O
  O91      1.0000 0.18120  0.55060  0.38977  Biso   1.000  O
  O92      1.0000 0.25380  0.52780  0.34057  Biso   1.000  O
  O93      1.0000 0.21870  0.82340  0.56687  Biso   1.000  O
  O94      1.0000 0.22460  0.88310  0.46187  Biso   1.000  O
  O95      1.0000 0.36620  0.86680  0.73077  Biso   1.000  O
  O96      1.0000 0.46300  0.95590  0.73767  Biso   1.000  O
  O97      1.0000 0.15320  0.74110  0.43337  Biso   1.000  O
  O98      1.0000 0.19650  0.68580  0.37947  Biso   1.000  O
  O99      1.0000 0.14750  0.89890  0.33217  Biso   1.000  O
  O100     1.0000 0.17340  0.93640  0.21427  Biso   1.000  O
  O101     1.0000 0.13170  0.72180  0.67267  Biso   1.000  O
  O102     1.0000 0.22250  0.74980  0.73687  Biso   1.000  O
  O103     1.0000 0.92530  0.55880  0.78517  Biso   1.000  O
  O104     1.0000 0.92400  0.50770  0.89407  Biso   1.000  O
  O105     1.0000 0.92220  0.68030  0.79167  Biso   1.000  O
  O106     1.0000 0.06650  0.74750  0.55517  Biso   1.000  O
  O107     1.0000 0.91940  0.75230  0.84677  Biso   1.000  O
  O108     1.0000 0.10160  0.85470  0.49957  Biso   1.000  O
  O109     1.0000 0.04660  0.75000  0.35597  Biso   1.000  O
  H105     1.0000 0.02280  0.75960  0.32197  Biso   1.000  H
  H106     1.0000 0.01000  0.72230  0.38387  Biso   1.000  H
  O110     1.0000 0.04980  0.77410  0.34927  Biso   1.000  O
  N17      1.0000 0.26580  0.64090  0.47657  Biso   1.000  N
  N18      1.0000 0.33470  0.90960  0.60847  Biso   1.000  N
  N19      1.0000 0.18070  0.81400  0.31257  Biso   1.000  N
  N20      1.0000 0.94450  0.70290  0.31857  Biso   1.000  N
  C161     1.0000 0.30500  0.68960  0.52277  Biso   1.000  C
  C162     1.0000 0.36840  0.70610  0.53277  Biso   1.000  C
  H107     1.0000 0.39470  0.73830  0.56947  Biso   1.000  H
  C163     1.0000 0.39300  0.67630  0.48997  Biso   1.000  C
  H108     1.0000 0.43680  0.68740  0.49527  Biso   1.000  H
  C164     1.0000 0.35160  0.62770  0.43677  Biso   1.000  C
  H109     1.0000 0.36800  0.60790  0.40287  Biso   1.000  H
  C165     1.0000 0.28820  0.61010  0.43527  Biso   1.000  C
  C166     1.0000 0.27210  0.72140  0.56097  Biso   1.000  C
  C167     1.0000 0.23800  0.55910  0.38467  Biso   1.000  C
  C168     1.0000 0.31140  0.92560  0.54887  Biso   1.000  C
  C169     1.0000 0.34880  0.98480  0.51257  Biso   1.000  C
  H110     1.0000 0.33320  0.99620  0.46807  Biso   1.000  H
  C170     1.0000 0.41010  0.02740  0.54297  Biso   1.000  C
  H111     1.0000 0.43590  0.06870  0.52007  Biso   1.000  H
  C171     1.0000 0.43230  0.00960  0.60447  Biso   1.000  C
  H112     1.0000 0.47370  0.03810  0.62537  Biso   1.000  H
  C172     1.0000 0.39380  0.94900  0.63727  Biso   1.000  C
  C173     1.0000 0.24610  0.87440  0.52297  Biso   1.000  C
  C174     1.0000 0.40930  0.92160  0.70737  Biso   1.000  C
  C175     1.0000 0.19850  0.77010  0.30737  Biso   1.000  C
  C176     1.0000 0.22880  0.76550  0.24247  Biso   1.000  C
  H113     1.0000 0.24310  0.73500  0.24027  Biso   1.000  H
  C177     1.0000 0.23840  0.80530  0.18057  Biso   1.000  C
  H114     1.0000 0.25810  0.80110  0.13477  Biso   1.000  H
  C178     1.0000 0.21990  0.85110  0.18377  Biso   1.000  C
  H115     1.0000 0.22550  0.87830  0.14067  Biso   1.000  H
  C179     1.0000 0.19340  0.85530  0.25027  Biso   1.000  C
  C180     1.0000 0.18220  0.72920  0.37907  Biso   1.000  C
  C181     1.0000 0.16960  0.90170  0.26627  Biso   1.000  C
  C182     1.0000 0.12390  0.67700  0.79717  Biso   1.000  C
  C183     1.0000 0.05860  0.63560  0.79047  Biso   1.000  C
  H116     1.0000 0.03730  0.63470  0.74337  Biso   1.000  H
  C184     1.0000 0.02270  0.59450  0.85197  Biso   1.000  C
  C185     1.0000 0.05520  0.59570  0.91917  Biso   1.000  C
  H117     1.0000 0.03220  0.56710  0.96067  Biso   1.000  H
  C186     1.0000 0.12080  0.63800  0.92637  Biso   1.000  C
  H118     1.0000 0.14210  0.63960  0.97367  Biso   1.000  H
  C187     1.0000 0.15530  0.67760  0.86577  Biso   1.000  C
  H119     1.0000 0.20060  0.70540  0.87047  Biso   1.000  H
  C188     1.0000 0.16210  0.72000  0.73027  Biso   1.000  C
  C189     1.0000 0.95150  0.54970  0.84247  Biso   1.000  C
  C190     1.0000 0.04350  0.82050  0.61447  Biso   1.000  C
  C191     1.0000 0.06630  0.88470  0.63407  Biso   1.000  C
  H120     1.0000 0.09090  0.91780  0.59757  Biso   1.000  H
  C192     1.0000 0.05290  0.90030  0.70697  Biso   1.000  C
  H121     1.0000 0.06850  0.94420  0.72027  Biso   1.000  H
  C193     1.0000 0.01690  0.85190  0.76037  Biso   1.000  C
  H122     1.0000 0.00780  0.86260  0.81017  Biso   1.000  H
  C194     1.0000 0.99410  0.78770  0.74077  Biso   1.000  C
  C195     1.0000 0.00740  0.77200  0.66787  Biso   1.000  C
  H123     1.0000 0.99190  0.72820  0.65457  Biso   1.000  H
  C196     1.0000 0.94410  0.73450  0.79167  Biso   1.000  C
  C197     1.0000 0.07600  0.80900  0.54867  Biso   1.000  C
  C198     1.0000 0.99990  0.72930  0.37067  Biso   1.000  C
  H124     1.0000 0.99650  0.71120  0.42107  Biso   1.000  H
  C199     1.0000 0.94750  0.73130  0.26267  Biso   1.000  C
  H125     1.0000 0.99290  0.75950  0.24877  Biso   1.000  H
  H126     1.0000 0.92730  0.75750  0.27267  Biso   1.000  H
  H127     1.0000 0.92500  0.70110  0.22047  Biso   1.000  H
  C200     1.0000 0.87980  0.65700  0.35377  Biso   1.000  C
  H128     1.0000 0.87550  0.61430  0.35937  Biso   1.000  H
  H129     1.0000 0.84560  0.65400  0.31977  Biso   1.000  H
  H130     1.0000 0.87640  0.67300  0.40507  Biso   1.000  H
  Co21     1.0000 0.85649  0.58498  0.77785  Biso   1.000  Co
  Co22     1.0000 0.83024  0.44383  0.86841  Biso   1.000  Co
  Co23     1.0000 0.72189  0.54759  0.66388  Biso   1.000  Co
  Co24     1.0000 0.86494  0.68718  0.92618  Biso   1.000  Co
  O111     1.0000 0.78750  0.48480  0.78177  Biso   1.000  O
  O112     1.0000 0.69370  0.46330  0.72707  Biso   1.000  O
  O113     1.0000 0.81880  0.36940  0.94357  Biso   1.000  O
  O114     1.0000 0.74620  0.27400  0.99277  Biso   1.000  O
  O115     1.0000 0.78130  0.60470  0.76647  Biso   1.000  O
  O116     1.0000 0.77540  0.65850  0.87147  Biso   1.000  O
  O117     1.0000 0.63380  0.50060  0.60257  Biso   1.000  O
  O118     1.0000 0.53700  0.49290  0.59567  Biso   1.000  O
  O119     1.0000 0.84680  0.58790  0.89997  Biso   1.000  O
  O120     1.0000 0.80350  0.48930  0.95387  Biso   1.000  O
  O121     1.0000 0.85250  0.75140  0.00117  Biso   1.000  O
  O122     1.0000 0.82660  0.76300  0.11907  Biso   1.000  O
  O123     1.0000 0.86830  0.59010  0.66067  Biso   1.000  O
  O124     1.0000 0.77750  0.52730  0.59647  Biso   1.000  O
  O125     1.0000 0.07470  0.63350  0.54817  Biso   1.000  O
  O126     1.0000 0.07600  0.58370  0.43927  Biso   1.000  O
  O127     1.0000 0.07780  0.75810  0.54167  Biso   1.000  O
  O128     1.0000 0.93350  0.68100  0.77817  Biso   1.000  O
  O129     1.0000 0.08060  0.83290  0.48657  Biso   1.000  O
  O130     1.0000 0.89840  0.75310  0.83377  Biso   1.000  O
  O131     1.0000 0.95340  0.70340  0.97737  Biso   1.000  O
  H131     1.0000 0.97720  0.73680  0.01137  Biso   1.000  H
  H132     1.0000 0.99000  0.71230  0.94947  Biso   1.000  H
  O132     1.0000 0.95020  0.72430  0.98407  Biso   1.000  O
  N21      1.0000 0.73420  0.37510  0.85677  Biso   1.000  N
  N22      1.0000 0.66530  0.57490  0.72487  Biso   1.000  N
  N23      1.0000 0.81930  0.63330  0.02077  Biso   1.000  N
  N24      1.0000 0.05550  0.75840  0.01477  Biso   1.000  N
  C201     1.0000 0.69500  0.38460  0.81057  Biso   1.000  C
  C202     1.0000 0.63160  0.33770  0.80057  Biso   1.000  C
  H133     1.0000 0.60530  0.34360  0.76387  Biso   1.000  H
  C203     1.0000 0.60700  0.28330  0.84337  Biso   1.000  C
  H134     1.0000 0.56320  0.25060  0.83807  Biso   1.000  H
  C204     1.0000 0.64840  0.27610  0.89657  Biso   1.000  C
  H135     1.0000 0.63200  0.23990  0.93047  Biso   1.000  H
  C205     1.0000 0.71180  0.32190  0.89807  Biso   1.000  C
  C206     1.0000 0.72790  0.44930  0.77237  Biso   1.000  C
  C207     1.0000 0.76200  0.32110  0.94867  Biso   1.000  C
  C208     1.0000 0.68860  0.61420  0.78447  Biso   1.000  C
  C209     1.0000 0.65120  0.63600  0.82077  Biso   1.000  C
  H136     1.0000 0.66680  0.66300  0.86527  Biso   1.000  H
  C210     1.0000 0.58990  0.61730  0.79037  Biso   1.000  C
  H137     1.0000 0.56410  0.63280  0.81327  Biso   1.000  H
  C211     1.0000 0.56770  0.57730  0.72887  Biso   1.000  C
  H138     1.0000 0.52630  0.56440  0.70797  Biso   1.000  H
  C212     1.0000 0.60620  0.55520  0.69607  Biso   1.000  C
  C213     1.0000 0.75390  0.62830  0.81037  Biso   1.000  C
  C214     1.0000 0.59070  0.51230  0.62597  Biso   1.000  C
  C215     1.0000 0.80150  0.57160  0.02597  Biso   1.000  C
  C216     1.0000 0.77120  0.53670  0.09087  Biso   1.000  C
  H139     1.0000 0.75690  0.49190  0.09307  Biso   1.000  H
  C217     1.0000 0.76160  0.56690  0.15277  Biso   1.000  C
  H140     1.0000 0.74190  0.54300  0.19857  Biso   1.000  H
  C218     1.0000 0.78010  0.63120  0.14957  Biso   1.000  C
  H141     1.0000 0.77450  0.65280  0.19267  Biso   1.000  H
  C219     1.0000 0.80660  0.66190  0.08307  Biso   1.000  C
  C220     1.0000 0.81780  0.54700  0.95427  Biso   1.000  C
  C221     1.0000 0.83040  0.73210  0.06707  Biso   1.000  C
  C222     1.0000 0.87610  0.55310  0.53617  Biso   1.000  C
  C223     1.0000 0.94140  0.57700  0.54287  Biso   1.000  C
  H142     1.0000 0.96270  0.59740  0.58997  Biso   1.000  H
  C224     1.0000 0.97730  0.57180  0.48137  Biso   1.000  C
  C225     1.0000 0.94480  0.54050  0.41417  Biso   1.000  C
  H143     1.0000 0.96780  0.53490  0.37267  Biso   1.000  H
  C226     1.0000 0.87920  0.51720  0.40697  Biso   1.000  C
  H144     1.0000 0.85790  0.49750  0.35967  Biso   1.000  H
  C227     1.0000 0.84470  0.52230  0.46757  Biso   1.000  C
  H145     1.0000 0.79940  0.50480  0.46287  Biso   1.000  H
  C228     1.0000 0.83790  0.55790  0.60307  Biso   1.000  C
  C229     1.0000 0.04850  0.59820  0.49087  Biso   1.000  C
  C230     1.0000 0.95650  0.77700  0.71887  Biso   1.000  C
  C231     1.0000 0.93370  0.81840  0.69927  Biso   1.000  C
  H146     1.0000 0.90910  0.82690  0.73577  Biso   1.000  H
  C232     1.0000 0.94710  0.84740  0.62637  Biso   1.000  C
  H147     1.0000 0.93150  0.87570  0.61307  Biso   1.000  H
  C233     1.0000 0.98310  0.83500  0.57297  Biso   1.000  C
  H148     1.0000 0.99220  0.85480  0.52317  Biso   1.000  H
  C234     1.0000 0.00590  0.79360  0.59257  Biso   1.000  C
  C235     1.0000 0.99260  0.76460  0.66547  Biso   1.000  C
  H149     1.0000 0.00810  0.73630  0.67877  Biso   1.000  H
  C236     1.0000 0.05590  0.79040  0.54167  Biso   1.000  C
  C237     1.0000 0.92400  0.73300  0.78467  Biso   1.000  C
  C238     1.0000 0.00010  0.72940  0.96267  Biso   1.000  C
  H150     1.0000 0.00350  0.71470  0.91227  Biso   1.000  H
  C239     1.0000 0.05250  0.78380  0.07067  Biso   1.000  C
  H151     1.0000 0.00710  0.76660  0.08457  Biso   1.000  H
  H152     1.0000 0.07270  0.83020  0.06067  Biso   1.000  H
  H153     1.0000 0.07500  0.77610  0.11287  Biso   1.000  H
  C240     1.0000 0.12020  0.77720  0.97957  Biso   1.000  C
  H154     1.0000 0.12450  0.73880  0.97397  Biso   1.000  H
  H155     1.0000 0.15440  0.80840  0.01357  Biso   1.000  H
  H156     1.0000 0.12360  0.79660  0.92827  Biso   1.000  H
