data_image0
_cell_length_a       29.997
_cell_length_b       12.8596
_cell_length_c       12.8188
_cell_angle_alpha    90
_cell_angle_beta     90
_cell_angle_gamma    90

_symmetry_space_group_name_H-M    "P 1"
_symmetry_int_tables_number       1

loop_
  _symmetry_equiv_pos_as_xyz
  'x, y, z'

loop_
  _atom_site_label
  _atom_site_occupancy
  _atom_site_fract_x
  _atom_site_fract_y
  _atom_site_fract_z
  _atom_site_thermal_displace_type
  _atom_site_B_iso_or_equiv
  _atom_site_type_symbol
  C1       1.0000 0.42100  0.93000  0.56000  Biso   1.000  C
  C2       1.0000 0.41700  0.83000  0.62000  Biso   1.000  C
  C3       1.0000 0.39700  0.02000  0.59000  Biso   1.000  C
  C4       1.0000 0.44800  0.93000  0.47000  Biso   1.000  C
  N1       1.0000 0.38900  0.82000  0.70000  Biso   1.000  N
  N2       1.0000 0.42600  0.74000  0.56400  Biso   1.000  N
  C5       1.0000 0.40100  0.11000  0.53000  Biso   1.000  C
  C6       1.0000 0.45100  0.03000  0.42000  Biso   1.000  C
  C7       1.0000 0.36900  0.73000  0.73000  Biso   1.000  C
  C8       1.0000 0.40600  0.64000  0.59000  Biso   1.000  C
  N3       1.0000 0.42900  0.11000  0.45000  Biso   1.000  N
  C9       1.0000 0.33700  0.73000  0.82000  Biso   1.000  C
  N4       1.0000 0.37700  0.64000  0.67000  Biso   1.000  N
  C10      1.0000 0.41700  0.55000  0.53000  Biso   1.000  C
  Zn1      1.0000 0.42350  0.23600  0.33900  Biso   1.000  Zn
  C11      1.0000 0.33600  0.82000  0.89000  Biso   1.000  C
  C12      1.0000 0.31700  0.64000  0.86000  Biso   1.000  C
  C13      1.0000 0.45800  0.54000  0.48000  Biso   1.000  C
  C14      1.0000 0.38500  0.47000  0.53000  Biso   1.000  C
  Br1      1.0000 0.49560  0.24500  0.22200  Biso   1.000  Br
  Br2      1.0000 0.35640  0.27300  0.26500  Biso   1.000  Br
  C15      1.0000 0.31600  0.82000  0.98000  Biso   1.000  C
  C16      1.0000 0.29700  0.64000  0.96000  Biso   1.000  C
  C17      1.0000 0.46500  0.45000  0.42000  Biso   1.000  C
  C18      1.0000 0.39400  0.38000  0.47000  Biso   1.000  C
  N5       1.0000 0.29700  0.73000  0.02100  Biso   1.000  N
  N6       1.0000 0.43300  0.38000  0.41000  Biso   1.000  N
  Br3      1.0000 0.24900  0.90800  0.18900  Biso   1.000  Br
  C19      1.0000 0.07900  0.57000  0.56000  Biso   1.000  C
  C20      1.0000 0.08300  0.67000  0.62000  Biso   1.000  C
  C21      1.0000 0.10300  0.48000  0.59000  Biso   1.000  C
  C22      1.0000 0.05200  0.57000  0.47000  Biso   1.000  C
  N7       1.0000 0.11100  0.68000  0.70000  Biso   1.000  N
  N8       1.0000 0.07400  0.76000  0.56400  Biso   1.000  N
  C23      1.0000 0.09900  0.39000  0.53000  Biso   1.000  C
  C24      1.0000 0.04900  0.47000  0.42000  Biso   1.000  C
  C25      1.0000 0.13100  0.77000  0.73000  Biso   1.000  C
  C26      1.0000 0.09400  0.86000  0.59000  Biso   1.000  C
  N9       1.0000 0.07100  0.39000  0.45000  Biso   1.000  N
  C27      1.0000 0.16300  0.77000  0.82000  Biso   1.000  C
  N10      1.0000 0.12300  0.86000  0.67000  Biso   1.000  N
  C28      1.0000 0.08300  0.95000  0.53000  Biso   1.000  C
  Zn2      1.0000 0.07650  0.26400  0.33900  Biso   1.000  Zn
  C29      1.0000 0.16400  0.68000  0.89000  Biso   1.000  C
  C30      1.0000 0.18300  0.86000  0.86000  Biso   1.000  C
  C31      1.0000 0.04200  0.96000  0.48000  Biso   1.000  C
  C32      1.0000 0.11500  0.03000  0.53000  Biso   1.000  C
  Br4      1.0000 0.00440  0.25500  0.22200  Biso   1.000  Br
  Br5      1.0000 0.14360  0.22700  0.26500  Biso   1.000  Br
  C33      1.0000 0.18400  0.68000  0.98000  Biso   1.000  C
  C34      1.0000 0.20300  0.86000  0.96000  Biso   1.000  C
  C35      1.0000 0.03500  0.05000  0.42000  Biso   1.000  C
  C36      1.0000 0.10600  0.12000  0.47000  Biso   1.000  C
  N11      1.0000 0.20300  0.77000  0.02100  Biso   1.000  N
  N12      1.0000 0.06700  0.12000  0.41000  Biso   1.000  N
  Br6      1.0000 0.25100  0.59200  0.18900  Biso   1.000  Br
  Zn3      1.0000 0.25000  0.75000  0.10800  Biso   1.000  Zn
  C37      1.0000 0.57900  0.43000  0.94000  Biso   1.000  C
  C38      1.0000 0.58300  0.33000  0.88000  Biso   1.000  C
  C39      1.0000 0.60300  0.52000  0.91000  Biso   1.000  C
  C40      1.0000 0.55200  0.43000  0.03000  Biso   1.000  C
  N13      1.0000 0.61100  0.32000  0.80000  Biso   1.000  N
  N14      1.0000 0.57400  0.24000  0.93600  Biso   1.000  N
  C41      1.0000 0.59900  0.61000  0.97000  Biso   1.000  C
  C42      1.0000 0.54900  0.53000  0.08000  Biso   1.000  C
  C43      1.0000 0.63100  0.23000  0.77000  Biso   1.000  C
  C44      1.0000 0.59400  0.14000  0.91000  Biso   1.000  C
  N15      1.0000 0.57100  0.61000  0.05000  Biso   1.000  N
  C45      1.0000 0.66300  0.23000  0.68000  Biso   1.000  C
  N16      1.0000 0.62300  0.14000  0.83000  Biso   1.000  N
  C46      1.0000 0.58300  0.05000  0.97000  Biso   1.000  C
  Zn4      1.0000 0.57650  0.73600  0.16100  Biso   1.000  Zn
  C47      1.0000 0.66400  0.32000  0.61000  Biso   1.000  C
  C48      1.0000 0.68300  0.14000  0.64000  Biso   1.000  C
  C49      1.0000 0.54200  0.04000  0.02000  Biso   1.000  C
  C50      1.0000 0.61500  0.97000  0.97000  Biso   1.000  C
  Br7      1.0000 0.50440  0.74500  0.27800  Biso   1.000  Br
  Br8      1.0000 0.64360  0.77300  0.23500  Biso   1.000  Br
  C51      1.0000 0.68400  0.32000  0.52000  Biso   1.000  C
  C52      1.0000 0.70300  0.14000  0.54000  Biso   1.000  C
  C53      1.0000 0.53500  0.95000  0.08000  Biso   1.000  C
  C54      1.0000 0.60600  0.88000  0.03000  Biso   1.000  C
  N17      1.0000 0.70300  0.23000  0.47900  Biso   1.000  N
  N18      1.0000 0.56700  0.88000  0.09000  Biso   1.000  N
  Br9      1.0000 0.75100  0.40800  0.31100  Biso   1.000  Br
  C55      1.0000 0.92100  0.07000  0.94000  Biso   1.000  C
  C56      1.0000 0.91700  0.17000  0.88000  Biso   1.000  C
  C57      1.0000 0.89700  0.98000  0.91000  Biso   1.000  C
  C58      1.0000 0.94800  0.07000  0.03000  Biso   1.000  C
  N19      1.0000 0.88900  0.18000  0.80000  Biso   1.000  N
  N20      1.0000 0.92600  0.26000  0.93600  Biso   1.000  N
  C59      1.0000 0.90100  0.89000  0.97000  Biso   1.000  C
  C60      1.0000 0.95100  0.97000  0.08000  Biso   1.000  C
  C61      1.0000 0.86900  0.27000  0.77000  Biso   1.000  C
  C62      1.0000 0.90600  0.36000  0.91000  Biso   1.000  C
  N21      1.0000 0.92900  0.89000  0.05000  Biso   1.000  N
  C63      1.0000 0.83700  0.27000  0.68000  Biso   1.000  C
  N22      1.0000 0.87700  0.36000  0.83000  Biso   1.000  N
  C64      1.0000 0.91700  0.45000  0.97000  Biso   1.000  C
  Zn5      1.0000 0.92350  0.76400  0.16100  Biso   1.000  Zn
  C65      1.0000 0.83600  0.18000  0.61000  Biso   1.000  C
  C66      1.0000 0.81700  0.36000  0.64000  Biso   1.000  C
  C67      1.0000 0.95800  0.46000  0.02000  Biso   1.000  C
  C68      1.0000 0.88500  0.53000  0.97000  Biso   1.000  C
  Br10     1.0000 0.99560  0.75500  0.27800  Biso   1.000  Br
  Br11     1.0000 0.85640  0.72700  0.23500  Biso   1.000  Br
  C69      1.0000 0.81600  0.18000  0.52000  Biso   1.000  C
  C70      1.0000 0.79700  0.36000  0.54000  Biso   1.000  C
  C71      1.0000 0.96500  0.55000  0.08000  Biso   1.000  C
  C72      1.0000 0.89400  0.62000  0.03000  Biso   1.000  C
  N23      1.0000 0.79700  0.27000  0.47900  Biso   1.000  N
  N24      1.0000 0.93300  0.62000  0.09000  Biso   1.000  N
  Br12     1.0000 0.74900  0.09200  0.31100  Biso   1.000  Br
  Zn6      1.0000 0.75000  0.25000  0.39200  Biso   1.000  Zn
  C73      1.0000 0.57900  0.07000  0.44000  Biso   1.000  C
  C74      1.0000 0.58300  0.17000  0.38000  Biso   1.000  C
  C75      1.0000 0.60300  0.98000  0.41000  Biso   1.000  C
  C76      1.0000 0.55200  0.07000  0.53000  Biso   1.000  C
  N25      1.0000 0.61100  0.18000  0.30000  Biso   1.000  N
  N26      1.0000 0.57400  0.26000  0.43600  Biso   1.000  N
  C77      1.0000 0.59900  0.89000  0.47000  Biso   1.000  C
  C78      1.0000 0.54900  0.97000  0.58000  Biso   1.000  C
  C79      1.0000 0.63100  0.27000  0.27000  Biso   1.000  C
  C80      1.0000 0.59400  0.36000  0.41000  Biso   1.000  C
  N27      1.0000 0.57100  0.89000  0.55000  Biso   1.000  N
  C81      1.0000 0.66300  0.27000  0.18000  Biso   1.000  C
  N28      1.0000 0.62300  0.36000  0.33000  Biso   1.000  N
  C82      1.0000 0.58300  0.45000  0.47000  Biso   1.000  C
  Zn7      1.0000 0.57650  0.76400  0.66100  Biso   1.000  Zn
  C83      1.0000 0.66400  0.18000  0.11000  Biso   1.000  C
  C84      1.0000 0.68300  0.36000  0.14000  Biso   1.000  C
  C85      1.0000 0.54200  0.46000  0.52000  Biso   1.000  C
  C86      1.0000 0.61500  0.53000  0.47000  Biso   1.000  C
  Br13     1.0000 0.50440  0.75500  0.77800  Biso   1.000  Br
  Br14     1.0000 0.64360  0.72700  0.73500  Biso   1.000  Br
  C87      1.0000 0.68400  0.18000  0.02000  Biso   1.000  C
  C88      1.0000 0.70300  0.36000  0.04000  Biso   1.000  C
  C89      1.0000 0.53500  0.55000  0.58000  Biso   1.000  C
  C90      1.0000 0.60600  0.62000  0.53000  Biso   1.000  C
  N29      1.0000 0.70300  0.27000  0.97900  Biso   1.000  N
  N30      1.0000 0.56700  0.62000  0.59000  Biso   1.000  N
  Br15     1.0000 0.75100  0.09200  0.81100  Biso   1.000  Br
  C91      1.0000 0.92100  0.43000  0.44000  Biso   1.000  C
  C92      1.0000 0.91700  0.33000  0.38000  Biso   1.000  C
  C93      1.0000 0.89700  0.52000  0.41000  Biso   1.000  C
  C94      1.0000 0.94800  0.43000  0.53000  Biso   1.000  C
  N31      1.0000 0.88900  0.32000  0.30000  Biso   1.000  N
  N32      1.0000 0.92600  0.24000  0.43600  Biso   1.000  N
  C95      1.0000 0.90100  0.61000  0.47000  Biso   1.000  C
  C96      1.0000 0.95100  0.53000  0.58000  Biso   1.000  C
  C97      1.0000 0.86900  0.23000  0.27000  Biso   1.000  C
  C98      1.0000 0.90600  0.14000  0.41000  Biso   1.000  C
  N33      1.0000 0.92900  0.61000  0.55000  Biso   1.000  N
  C99      1.0000 0.83700  0.23000  0.18000  Biso   1.000  C
  N34      1.0000 0.87700  0.14000  0.33000  Biso   1.000  N
  C100     1.0000 0.91700  0.05000  0.47000  Biso   1.000  C
  Zn8      1.0000 0.92350  0.73600  0.66100  Biso   1.000  Zn
  C101     1.0000 0.83600  0.32000  0.11000  Biso   1.000  C
  C102     1.0000 0.81700  0.14000  0.14000  Biso   1.000  C
  C103     1.0000 0.95800  0.04000  0.52000  Biso   1.000  C
  C104     1.0000 0.88500  0.97000  0.47000  Biso   1.000  C
  Br16     1.0000 0.99560  0.74500  0.77800  Biso   1.000  Br
  Br17     1.0000 0.85640  0.77300  0.73500  Biso   1.000  Br
  C105     1.0000 0.81600  0.32000  0.02000  Biso   1.000  C
  C106     1.0000 0.79700  0.14000  0.04000  Biso   1.000  C
  C107     1.0000 0.96500  0.95000  0.58000  Biso   1.000  C
  C108     1.0000 0.89400  0.88000  0.53000  Biso   1.000  C
  N35      1.0000 0.79700  0.23000  0.97900  Biso   1.000  N
  N36      1.0000 0.93300  0.88000  0.59000  Biso   1.000  N
  Br18     1.0000 0.74900  0.40800  0.81100  Biso   1.000  Br
  Zn9      1.0000 0.75000  0.25000  0.89200  Biso   1.000  Zn
  C109     1.0000 0.42100  0.57000  0.06000  Biso   1.000  C
  C110     1.0000 0.41700  0.67000  0.12000  Biso   1.000  C
  C111     1.0000 0.39700  0.48000  0.09000  Biso   1.000  C
  C112     1.0000 0.44800  0.57000  0.97000  Biso   1.000  C
  N37      1.0000 0.38900  0.68000  0.20000  Biso   1.000  N
  N38      1.0000 0.42600  0.76000  0.06400  Biso   1.000  N
  C113     1.0000 0.40100  0.39000  0.03000  Biso   1.000  C
  C114     1.0000 0.45100  0.47000  0.92000  Biso   1.000  C
  C115     1.0000 0.36900  0.77000  0.23000  Biso   1.000  C
  C116     1.0000 0.40600  0.86000  0.09000  Biso   1.000  C
  N39      1.0000 0.42900  0.39000  0.95000  Biso   1.000  N
  C117     1.0000 0.33700  0.77000  0.32000  Biso   1.000  C
  N40      1.0000 0.37700  0.86000  0.17000  Biso   1.000  N
  C118     1.0000 0.41700  0.95000  0.03000  Biso   1.000  C
  Zn10     1.0000 0.42350  0.26400  0.83900  Biso   1.000  Zn
  C119     1.0000 0.33600  0.68000  0.39000  Biso   1.000  C
  C120     1.0000 0.31700  0.86000  0.36000  Biso   1.000  C
  C121     1.0000 0.45800  0.96000  0.98000  Biso   1.000  C
  C122     1.0000 0.38500  0.03000  0.03000  Biso   1.000  C
  Br19     1.0000 0.49560  0.25500  0.72200  Biso   1.000  Br
  Br20     1.0000 0.35640  0.22700  0.76500  Biso   1.000  Br
  C123     1.0000 0.31600  0.68000  0.48000  Biso   1.000  C
  C124     1.0000 0.29700  0.86000  0.46000  Biso   1.000  C
  C125     1.0000 0.46500  0.05000  0.92000  Biso   1.000  C
  C126     1.0000 0.39400  0.12000  0.97000  Biso   1.000  C
  N41      1.0000 0.29700  0.77000  0.52100  Biso   1.000  N
  N42      1.0000 0.43300  0.12000  0.91000  Biso   1.000  N
  Br21     1.0000 0.24900  0.59200  0.68900  Biso   1.000  Br
  C127     1.0000 0.07900  0.93000  0.06000  Biso   1.000  C
  C128     1.0000 0.08300  0.83000  0.12000  Biso   1.000  C
  C129     1.0000 0.10300  0.02000  0.09000  Biso   1.000  C
  C130     1.0000 0.05200  0.93000  0.97000  Biso   1.000  C
  N43      1.0000 0.11100  0.82000  0.20000  Biso   1.000  N
  N44      1.0000 0.07400  0.74000  0.06400  Biso   1.000  N
  C131     1.0000 0.09900  0.11000  0.03000  Biso   1.000  C
  C132     1.0000 0.04900  0.03000  0.92000  Biso   1.000  C
  C133     1.0000 0.13100  0.73000  0.23000  Biso   1.000  C
  C134     1.0000 0.09400  0.64000  0.09000  Biso   1.000  C
  N45      1.0000 0.07100  0.11000  0.95000  Biso   1.000  N
  C135     1.0000 0.16300  0.73000  0.32000  Biso   1.000  C
  N46      1.0000 0.12300  0.64000  0.17000  Biso   1.000  N
  C136     1.0000 0.08300  0.55000  0.03000  Biso   1.000  C
  Zn11     1.0000 0.07650  0.23600  0.83900  Biso   1.000  Zn
  C137     1.0000 0.16400  0.82000  0.39000  Biso   1.000  C
  C138     1.0000 0.18300  0.64000  0.36000  Biso   1.000  C
  C139     1.0000 0.04200  0.54000  0.98000  Biso   1.000  C
  C140     1.0000 0.11500  0.47000  0.03000  Biso   1.000  C
  Br22     1.0000 0.00440  0.24500  0.72200  Biso   1.000  Br
  Br23     1.0000 0.14360  0.27300  0.76500  Biso   1.000  Br
  C141     1.0000 0.18400  0.82000  0.48000  Biso   1.000  C
  C142     1.0000 0.20300  0.64000  0.46000  Biso   1.000  C
  C143     1.0000 0.03500  0.45000  0.92000  Biso   1.000  C
  C144     1.0000 0.10600  0.38000  0.97000  Biso   1.000  C
  N47      1.0000 0.20300  0.73000  0.52100  Biso   1.000  N
  N48      1.0000 0.06700  0.38000  0.91000  Biso   1.000  N
  Br24     1.0000 0.25100  0.90800  0.68900  Biso   1.000  Br
  Zn12     1.0000 0.25000  0.75000  0.60800  Biso   1.000  Zn
