data_image0
_cell_length_a       17.6665
_cell_length_b       22.7226
_cell_length_c       8.5749
_cell_angle_alpha    90
_cell_angle_beta     118.32
_cell_angle_gamma    90

_symmetry_space_group_name_H-M    "P 1"
_symmetry_int_tables_number       1

loop_
  _symmetry_equiv_pos_as_xyz
  'x, y, z'

loop_
  _atom_site_label
  _atom_site_occupancy
  _atom_site_fract_x
  _atom_site_fract_y
  _atom_site_fract_z
  _atom_site_thermal_displace_type
  _atom_site_B_iso_or_equiv
  _atom_site_type_symbol
  La1      1.0000 0.81830  0.26629  0.86640  Biso   1.000  La
  C1       1.0000 0.84120  0.08280  0.58760  Biso   1.000  C
  C2       1.0000 0.90450  0.05700  0.74350  Biso   1.000  C
  H1       1.0000 0.94470  0.08050  0.83330  Biso   1.000  H
  C3       1.0000 0.90720  0.99740  0.76360  Biso   1.000  C
  H2       1.0000 0.94950  0.98060  0.86720  Biso   1.000  H
  C4       1.0000 0.84630  0.96080  0.62870  Biso   1.000  C
  C5       1.0000 0.84920  0.10110  0.14830  Biso   1.000  C
  H3       1.0000 0.89340  0.11820  0.24870  Biso   1.000  H
  C6       1.0000 0.78780  0.13600  0.02110  Biso   1.000  C
  C7       1.0000 0.72220  0.10960  0.86820  Biso   1.000  C
  C8       1.0000 0.71830  0.04970  0.84090  Biso   1.000  C
  H4       1.0000 0.67530  0.03350  0.73680  Biso   1.000  H
  C9       1.0000 0.78130  0.98750  0.47450  Biso   1.000  C
  C10      1.0000 0.78020  0.04910  0.45480  Biso   1.000  C
  H5       1.0000 0.73830  0.06680  0.35230  Biso   1.000  H
  O1       1.0000 0.85570  0.18664  0.71980  Biso   1.000  O
  O2       1.0000 0.92600  0.16772  0.54250  Biso   1.000  O
  O3       1.0000 0.72950  0.32355  0.59720  Biso   1.000  O
  O4       1.0000 0.68470  0.20210  0.66530  Biso   1.000  O
  O5       1.0000 0.58110  0.12270  0.56960  Biso   1.000  O
  O6       1.0000 0.89710  0.31616  0.18000  Biso   1.000  O
  O7       1.0000 0.78730  0.19527  0.04240  Biso   1.000  O
  S1       1.0000 0.84905  0.15889  0.55970  Biso   1.000  S
  S2       1.0000 0.64217  0.15700  0.71720  Biso   1.000  S
  O8       1.0000 0.91280  0.30030  0.70840  Biso   1.000  O
  H6       1.0000 0.86500  0.30070  0.59620  Biso   1.000  H
  H7       1.0000 0.93900  0.26370  0.72330  Biso   1.000  H
  O9       1.0000 0.90830  0.33780  0.79840  Biso   1.000  O
  H8       1.0000 0.90520  0.37130  0.73360  Biso   1.000  H
  H9       1.0000 0.96280  0.33710  0.89750  Biso   1.000  H
  O10      1.0000 0.88500  0.37480  0.91970  Biso   1.000  O
  H10      1.0000 0.92480  0.36850  0.03760  Biso   1.000  H
  H11      1.0000 0.83860  0.39480  0.91640  Biso   1.000  H
  La2      1.0000 0.68170  0.76629  0.63360  Biso   1.000  La
  C11      1.0000 0.65880  0.58280  0.91240  Biso   1.000  C
  C12      1.0000 0.59550  0.55700  0.75650  Biso   1.000  C
  H12      1.0000 0.55530  0.58050  0.66670  Biso   1.000  H
  C13      1.0000 0.59280  0.49740  0.73640  Biso   1.000  C
  H13      1.0000 0.55050  0.48060  0.63280  Biso   1.000  H
  C14      1.0000 0.65370  0.46080  0.87130  Biso   1.000  C
  C15      1.0000 0.65080  0.60110  0.35170  Biso   1.000  C
  H14      1.0000 0.60660  0.61820  0.25130  Biso   1.000  H
  C16      1.0000 0.71220  0.63600  0.47890  Biso   1.000  C
  C17      1.0000 0.77780  0.60960  0.63180  Biso   1.000  C
  C18      1.0000 0.78170  0.54970  0.65910  Biso   1.000  C
  H15      1.0000 0.82470  0.53350  0.76320  Biso   1.000  H
  C19      1.0000 0.71870  0.48750  0.02550  Biso   1.000  C
  C20      1.0000 0.71980  0.54910  0.04520  Biso   1.000  C
  H16      1.0000 0.76170  0.56680  0.14770  Biso   1.000  H
  O11      1.0000 0.64430  0.68664  0.78020  Biso   1.000  O
  O12      1.0000 0.57400  0.66772  0.95750  Biso   1.000  O
  O13      1.0000 0.77050  0.82355  0.90280  Biso   1.000  O
  O14      1.0000 0.81530  0.70210  0.83470  Biso   1.000  O
  O15      1.0000 0.91890  0.62270  0.93040  Biso   1.000  O
  O16      1.0000 0.60290  0.81616  0.32000  Biso   1.000  O
  O17      1.0000 0.71270  0.69527  0.45760  Biso   1.000  O
  S3       1.0000 0.65095  0.65889  0.94030  Biso   1.000  S
  S4       1.0000 0.85783  0.65700  0.78280  Biso   1.000  S
  O18      1.0000 0.58720  0.80030  0.79160  Biso   1.000  O
  H17      1.0000 0.63500  0.80070  0.90380  Biso   1.000  H
  H18      1.0000 0.56100  0.76370  0.77670  Biso   1.000  H
  O19      1.0000 0.59170  0.83780  0.70160  Biso   1.000  O
  H19      1.0000 0.59480  0.87130  0.76640  Biso   1.000  H
  H20      1.0000 0.53720  0.83710  0.60250  Biso   1.000  H
  O20      1.0000 0.61500  0.87480  0.58030  Biso   1.000  O
  H21      1.0000 0.57520  0.86850  0.46240  Biso   1.000  H
  H22      1.0000 0.66140  0.89480  0.58360  Biso   1.000  H
  La3      1.0000 0.68170  0.23371  0.13360  Biso   1.000  La
  C21      1.0000 0.65880  0.41720  0.41240  Biso   1.000  C
  C22      1.0000 0.59550  0.44300  0.25650  Biso   1.000  C
  H23      1.0000 0.55530  0.41950  0.16670  Biso   1.000  H
  C23      1.0000 0.59280  0.50260  0.23640  Biso   1.000  C
  H24      1.0000 0.55050  0.51940  0.13280  Biso   1.000  H
  C24      1.0000 0.65370  0.53920  0.37130  Biso   1.000  C
  C25      1.0000 0.65080  0.39890  0.85170  Biso   1.000  C
  H25      1.0000 0.60660  0.38180  0.75130  Biso   1.000  H
  C26      1.0000 0.71220  0.36400  0.97890  Biso   1.000  C
  C27      1.0000 0.77780  0.39040  0.13180  Biso   1.000  C
  C28      1.0000 0.78170  0.45030  0.15910  Biso   1.000  C
  H26      1.0000 0.82470  0.46650  0.26320  Biso   1.000  H
  C29      1.0000 0.71870  0.51250  0.52550  Biso   1.000  C
  C30      1.0000 0.71980  0.45090  0.54520  Biso   1.000  C
  H27      1.0000 0.76170  0.43320  0.64770  Biso   1.000  H
  O21      1.0000 0.64430  0.31336  0.28020  Biso   1.000  O
  O22      1.0000 0.57400  0.33228  0.45750  Biso   1.000  O
  O23      1.0000 0.77050  0.17645  0.40280  Biso   1.000  O
  O24      1.0000 0.81530  0.29790  0.33470  Biso   1.000  O
  O25      1.0000 0.91890  0.37730  0.43040  Biso   1.000  O
  O26      1.0000 0.60290  0.18384  0.82000  Biso   1.000  O
  O27      1.0000 0.71270  0.30473  0.95760  Biso   1.000  O
  S5       1.0000 0.65095  0.34111  0.44030  Biso   1.000  S
  S6       1.0000 0.85783  0.34300  0.28280  Biso   1.000  S
  O28      1.0000 0.58720  0.19970  0.29160  Biso   1.000  O
  H28      1.0000 0.63500  0.19930  0.40380  Biso   1.000  H
  H29      1.0000 0.56100  0.23630  0.27670  Biso   1.000  H
  O29      1.0000 0.59170  0.16220  0.20160  Biso   1.000  O
  H30      1.0000 0.59480  0.12870  0.26640  Biso   1.000  H
  H31      1.0000 0.53720  0.16290  0.10250  Biso   1.000  H
  O30      1.0000 0.61500  0.12520  0.08030  Biso   1.000  O
  H32      1.0000 0.57520  0.13150  0.96240  Biso   1.000  H
  H33      1.0000 0.66140  0.10520  0.08360  Biso   1.000  H
  La4      1.0000 0.81830  0.73371  0.36640  Biso   1.000  La
  C31      1.0000 0.84120  0.91720  0.08760  Biso   1.000  C
  C32      1.0000 0.90450  0.94300  0.24350  Biso   1.000  C
  H34      1.0000 0.94470  0.91950  0.33330  Biso   1.000  H
  C33      1.0000 0.90720  0.00260  0.26360  Biso   1.000  C
  H35      1.0000 0.94950  0.01940  0.36720  Biso   1.000  H
  C34      1.0000 0.84630  0.03920  0.12870  Biso   1.000  C
  C35      1.0000 0.84920  0.89890  0.64830  Biso   1.000  C
  H36      1.0000 0.89340  0.88180  0.74870  Biso   1.000  H
  C36      1.0000 0.78780  0.86400  0.52110  Biso   1.000  C
  C37      1.0000 0.72220  0.89040  0.36820  Biso   1.000  C
  C38      1.0000 0.71830  0.95030  0.34090  Biso   1.000  C
  H37      1.0000 0.67530  0.96650  0.23680  Biso   1.000  H
  C39      1.0000 0.78130  0.01250  0.97450  Biso   1.000  C
  C40      1.0000 0.78020  0.95090  0.95480  Biso   1.000  C
  H38      1.0000 0.73830  0.93320  0.85230  Biso   1.000  H
  O31      1.0000 0.85570  0.81336  0.21980  Biso   1.000  O
  O32      1.0000 0.92600  0.83228  0.04250  Biso   1.000  O
  O33      1.0000 0.72950  0.67645  0.09720  Biso   1.000  O
  O34      1.0000 0.68470  0.79790  0.16530  Biso   1.000  O
  O35      1.0000 0.58110  0.87730  0.06960  Biso   1.000  O
  O36      1.0000 0.89710  0.68384  0.68000  Biso   1.000  O
  O37      1.0000 0.78730  0.80473  0.54240  Biso   1.000  O
  S7       1.0000 0.84905  0.84111  0.05970  Biso   1.000  S
  S8       1.0000 0.64217  0.84300  0.21720  Biso   1.000  S
  O38      1.0000 0.91280  0.69970  0.20840  Biso   1.000  O
  H39      1.0000 0.86500  0.69930  0.09620  Biso   1.000  H
  H40      1.0000 0.93900  0.73630  0.22330  Biso   1.000  H
  O39      1.0000 0.90830  0.66220  0.29840  Biso   1.000  O
  H41      1.0000 0.90520  0.62870  0.23360  Biso   1.000  H
  H42      1.0000 0.96280  0.66290  0.39750  Biso   1.000  H
  O40      1.0000 0.88500  0.62520  0.41970  Biso   1.000  O
  H43      1.0000 0.92480  0.63150  0.53760  Biso   1.000  H
  H44      1.0000 0.83860  0.60520  0.41640  Biso   1.000  H
  La5      1.0000 0.31830  0.76629  0.86640  Biso   1.000  La
  C41      1.0000 0.34120  0.58280  0.58760  Biso   1.000  C
  C42      1.0000 0.40450  0.55700  0.74350  Biso   1.000  C
  H45      1.0000 0.44470  0.58050  0.83330  Biso   1.000  H
  C43      1.0000 0.40720  0.49740  0.76360  Biso   1.000  C
  H46      1.0000 0.44950  0.48060  0.86720  Biso   1.000  H
  C44      1.0000 0.34630  0.46080  0.62870  Biso   1.000  C
  C45      1.0000 0.34920  0.60110  0.14830  Biso   1.000  C
  H47      1.0000 0.39340  0.61820  0.24870  Biso   1.000  H
  C46      1.0000 0.28780  0.63600  0.02110  Biso   1.000  C
  C47      1.0000 0.22220  0.60960  0.86820  Biso   1.000  C
  C48      1.0000 0.21830  0.54970  0.84090  Biso   1.000  C
  H48      1.0000 0.17530  0.53350  0.73680  Biso   1.000  H
  C49      1.0000 0.28130  0.48750  0.47450  Biso   1.000  C
  C50      1.0000 0.28020  0.54910  0.45480  Biso   1.000  C
  H49      1.0000 0.23830  0.56680  0.35230  Biso   1.000  H
  O41      1.0000 0.35570  0.68664  0.71980  Biso   1.000  O
  O42      1.0000 0.42600  0.66772  0.54250  Biso   1.000  O
  O43      1.0000 0.22950  0.82355  0.59720  Biso   1.000  O
  O44      1.0000 0.18470  0.70210  0.66530  Biso   1.000  O
  O45      1.0000 0.08110  0.62270  0.56960  Biso   1.000  O
  O46      1.0000 0.39710  0.81616  0.18000  Biso   1.000  O
  O47      1.0000 0.28730  0.69527  0.04240  Biso   1.000  O
  S9       1.0000 0.34905  0.65889  0.55970  Biso   1.000  S
  S10      1.0000 0.14217  0.65700  0.71720  Biso   1.000  S
  O48      1.0000 0.41280  0.80030  0.70840  Biso   1.000  O
  H50      1.0000 0.36500  0.80070  0.59620  Biso   1.000  H
  H51      1.0000 0.43900  0.76370  0.72330  Biso   1.000  H
  O49      1.0000 0.40830  0.83780  0.79840  Biso   1.000  O
  H52      1.0000 0.40520  0.87130  0.73360  Biso   1.000  H
  H53      1.0000 0.46280  0.83710  0.89750  Biso   1.000  H
  O50      1.0000 0.38500  0.87480  0.91970  Biso   1.000  O
  H54      1.0000 0.42480  0.86850  0.03760  Biso   1.000  H
  H55      1.0000 0.33860  0.89480  0.91640  Biso   1.000  H
  La6      1.0000 0.18170  0.26629  0.63360  Biso   1.000  La
  C51      1.0000 0.15880  0.08280  0.91240  Biso   1.000  C
  C52      1.0000 0.09550  0.05700  0.75650  Biso   1.000  C
  H56      1.0000 0.05530  0.08050  0.66670  Biso   1.000  H
  C53      1.0000 0.09280  0.99740  0.73640  Biso   1.000  C
  H57      1.0000 0.05050  0.98060  0.63280  Biso   1.000  H
  C54      1.0000 0.15370  0.96080  0.87130  Biso   1.000  C
  C55      1.0000 0.15080  0.10110  0.35170  Biso   1.000  C
  H58      1.0000 0.10660  0.11820  0.25130  Biso   1.000  H
  C56      1.0000 0.21220  0.13600  0.47890  Biso   1.000  C
  C57      1.0000 0.27780  0.10960  0.63180  Biso   1.000  C
  C58      1.0000 0.28170  0.04970  0.65910  Biso   1.000  C
  H59      1.0000 0.32470  0.03350  0.76320  Biso   1.000  H
  C59      1.0000 0.21870  0.98750  0.02550  Biso   1.000  C
  C60      1.0000 0.21980  0.04910  0.04520  Biso   1.000  C
  H60      1.0000 0.26170  0.06680  0.14770  Biso   1.000  H
  O51      1.0000 0.14430  0.18664  0.78020  Biso   1.000  O
  O52      1.0000 0.07400  0.16772  0.95750  Biso   1.000  O
  O53      1.0000 0.27050  0.32355  0.90280  Biso   1.000  O
  O54      1.0000 0.31530  0.20210  0.83470  Biso   1.000  O
  O55      1.0000 0.41890  0.12270  0.93040  Biso   1.000  O
  O56      1.0000 0.10290  0.31616  0.32000  Biso   1.000  O
  O57      1.0000 0.21270  0.19527  0.45760  Biso   1.000  O
  S11      1.0000 0.15095  0.15889  0.94030  Biso   1.000  S
  S12      1.0000 0.35783  0.15700  0.78280  Biso   1.000  S
  O58      1.0000 0.08720  0.30030  0.79160  Biso   1.000  O
  H61      1.0000 0.13500  0.30070  0.90380  Biso   1.000  H
  H62      1.0000 0.06100  0.26370  0.77670  Biso   1.000  H
  O59      1.0000 0.09170  0.33780  0.70160  Biso   1.000  O
  H63      1.0000 0.09480  0.37130  0.76640  Biso   1.000  H
  H64      1.0000 0.03720  0.33710  0.60250  Biso   1.000  H
  O60      1.0000 0.11500  0.37480  0.58030  Biso   1.000  O
  H65      1.0000 0.07520  0.36850  0.46240  Biso   1.000  H
  H66      1.0000 0.16140  0.39480  0.58360  Biso   1.000  H
  La7      1.0000 0.18170  0.73371  0.13360  Biso   1.000  La
  C61      1.0000 0.15880  0.91720  0.41240  Biso   1.000  C
  C62      1.0000 0.09550  0.94300  0.25650  Biso   1.000  C
  H67      1.0000 0.05530  0.91950  0.16670  Biso   1.000  H
  C63      1.0000 0.09280  0.00260  0.23640  Biso   1.000  C
  H68      1.0000 0.05050  0.01940  0.13280  Biso   1.000  H
  C64      1.0000 0.15370  0.03920  0.37130  Biso   1.000  C
  C65      1.0000 0.15080  0.89890  0.85170  Biso   1.000  C
  H69      1.0000 0.10660  0.88180  0.75130  Biso   1.000  H
  C66      1.0000 0.21220  0.86400  0.97890  Biso   1.000  C
  C67      1.0000 0.27780  0.89040  0.13180  Biso   1.000  C
  C68      1.0000 0.28170  0.95030  0.15910  Biso   1.000  C
  H70      1.0000 0.32470  0.96650  0.26320  Biso   1.000  H
  C69      1.0000 0.21870  0.01250  0.52550  Biso   1.000  C
  C70      1.0000 0.21980  0.95090  0.54520  Biso   1.000  C
  H71      1.0000 0.26170  0.93320  0.64770  Biso   1.000  H
  O61      1.0000 0.14430  0.81336  0.28020  Biso   1.000  O
  O62      1.0000 0.07400  0.83228  0.45750  Biso   1.000  O
  O63      1.0000 0.27050  0.67645  0.40280  Biso   1.000  O
  O64      1.0000 0.31530  0.79790  0.33470  Biso   1.000  O
  O65      1.0000 0.41890  0.87730  0.43040  Biso   1.000  O
  O66      1.0000 0.10290  0.68384  0.82000  Biso   1.000  O
  O67      1.0000 0.21270  0.80473  0.95760  Biso   1.000  O
  S13      1.0000 0.15095  0.84111  0.44030  Biso   1.000  S
  S14      1.0000 0.35783  0.84300  0.28280  Biso   1.000  S
  O68      1.0000 0.08720  0.69970  0.29160  Biso   1.000  O
  H72      1.0000 0.13500  0.69930  0.40380  Biso   1.000  H
  H73      1.0000 0.06100  0.73630  0.27670  Biso   1.000  H
  O69      1.0000 0.09170  0.66220  0.20160  Biso   1.000  O
  H74      1.0000 0.09480  0.62870  0.26640  Biso   1.000  H
  H75      1.0000 0.03720  0.66290  0.10250  Biso   1.000  H
  O70      1.0000 0.11500  0.62520  0.08030  Biso   1.000  O
  H76      1.0000 0.07520  0.63150  0.96240  Biso   1.000  H
  H77      1.0000 0.16140  0.60520  0.08360  Biso   1.000  H
  La8      1.0000 0.31830  0.23371  0.36640  Biso   1.000  La
  C71      1.0000 0.34120  0.41720  0.08760  Biso   1.000  C
  C72      1.0000 0.40450  0.44300  0.24350  Biso   1.000  C
  H78      1.0000 0.44470  0.41950  0.33330  Biso   1.000  H
  C73      1.0000 0.40720  0.50260  0.26360  Biso   1.000  C
  H79      1.0000 0.44950  0.51940  0.36720  Biso   1.000  H
  C74      1.0000 0.34630  0.53920  0.12870  Biso   1.000  C
  C75      1.0000 0.34920  0.39890  0.64830  Biso   1.000  C
  H80      1.0000 0.39340  0.38180  0.74870  Biso   1.000  H
  C76      1.0000 0.28780  0.36400  0.52110  Biso   1.000  C
  C77      1.0000 0.22220  0.39040  0.36820  Biso   1.000  C
  C78      1.0000 0.21830  0.45030  0.34090  Biso   1.000  C
  H81      1.0000 0.17530  0.46650  0.23680  Biso   1.000  H
  C79      1.0000 0.28130  0.51250  0.97450  Biso   1.000  C
  C80      1.0000 0.28020  0.45090  0.95480  Biso   1.000  C
  H82      1.0000 0.23830  0.43320  0.85230  Biso   1.000  H
  O71      1.0000 0.35570  0.31336  0.21980  Biso   1.000  O
  O72      1.0000 0.42600  0.33228  0.04250  Biso   1.000  O
  O73      1.0000 0.22950  0.17645  0.09720  Biso   1.000  O
  O74      1.0000 0.18470  0.29790  0.16530  Biso   1.000  O
  O75      1.0000 0.08110  0.37730  0.06960  Biso   1.000  O
  O76      1.0000 0.39710  0.18384  0.68000  Biso   1.000  O
  O77      1.0000 0.28730  0.30473  0.54240  Biso   1.000  O
  S15      1.0000 0.34905  0.34111  0.05970  Biso   1.000  S
  S16      1.0000 0.14217  0.34300  0.21720  Biso   1.000  S
  O78      1.0000 0.41280  0.19970  0.20840  Biso   1.000  O
  H83      1.0000 0.36500  0.19930  0.09620  Biso   1.000  H
  H84      1.0000 0.43900  0.23630  0.22330  Biso   1.000  H
  O79      1.0000 0.40830  0.16220  0.29840  Biso   1.000  O
  H85      1.0000 0.40520  0.12870  0.23360  Biso   1.000  H
  H86      1.0000 0.46280  0.16290  0.39750  Biso   1.000  H
  O80      1.0000 0.38500  0.12520  0.41970  Biso   1.000  O
  H87      1.0000 0.42480  0.13150  0.53760  Biso   1.000  H
  H88      1.0000 0.33860  0.10520  0.41640  Biso   1.000  H
