data_image0
_cell_length_a       13.052
_cell_length_b       16.309
_cell_length_c       19.758
_cell_angle_alpha    72.567
_cell_angle_beta     88.003
_cell_angle_gamma    81.935

_symmetry_space_group_name_H-M    "P 1"
_symmetry_int_tables_number       1

loop_
  _symmetry_equiv_pos_as_xyz
  'x, y, z'

loop_
  _atom_site_label
  _atom_site_occupancy
  _atom_site_fract_x
  _atom_site_fract_y
  _atom_site_fract_z
  _atom_site_thermal_displace_type
  _atom_site_B_iso_or_equiv
  _atom_site_type_symbol
  O1       1.0000 0.65040  0.35600  0.68160  Biso   1.000  O
  Si1      1.0000 0.60200  0.27110  0.72920  Biso   1.000  Si
  O2       1.0000 0.69420  0.14020  0.63320  Biso   1.000  O
  O3       1.0000 0.57370  0.11490  0.87950  Biso   1.000  O
  O4       1.0000 0.52950  0.24930  0.93090  Biso   1.000  O
  O5       1.0000 0.67800  0.41370  0.80340  Biso   1.000  O
  O6       1.0000 0.35650  0.35620  0.71170  Biso   1.000  O
  O7       1.0000 0.72420  0.25190  0.88250  Biso   1.000  O
  O8       1.0000 0.52320  0.24110  0.68460  Biso   1.000  O
  O9       1.0000 0.78290  0.08800  0.87410  Biso   1.000  O
  O10      1.0000 0.65150  0.29710  0.55620  Biso   1.000  O
  O11      1.0000 0.44940  0.27770  0.55550  Biso   1.000  O
  O12      1.0000 0.47400  0.47210  0.71030  Biso   1.000  O
  O13      1.0000 0.81370  0.25480  0.63330  Biso   1.000  O
  O14      1.0000 0.77130  0.03560  0.76150  Biso   1.000  O
  O15      1.0000 0.89330  0.15290  0.75980  Biso   1.000  O
  O16      1.0000 0.36260  0.29570  0.85320  Biso   1.000  O
  O17      1.0000 0.65100  0.46210  0.55780  Biso   1.000  O
  O18      1.0000 0.81790  0.41790  0.63380  Biso   1.000  O
  O19      1.0000 0.48580  0.41040  0.85390  Biso   1.000  O
  O20      1.0000 0.69440  0.19620  0.75850  Biso   1.000  O
  O21      1.0000 0.46330  0.41820  0.60230  Biso   1.000  O
  O22      1.0000 0.83340  0.31570  0.76960  Biso   1.000  O
  O23      1.0000 0.49770  0.11190  0.63500  Biso   1.000  O
  O24      1.0000 0.55840  0.06340  0.76780  Biso   1.000  O
  O25      1.0000 0.66510  0.51530  0.67060  Biso   1.000  O
  O26      1.0000 0.34060  0.21420  0.66980  Biso   1.000  O
  O27      1.0000 0.41070  0.16120  0.80460  Biso   1.000  O
  O28      1.0000 0.53650  0.29220  0.79500  Biso   1.000  O
  W1       1.0000 0.83109  0.19868  0.83330  Biso   1.000  W
  W2       1.0000 0.74654  0.36337  0.57733  Biso   1.000  W
  W3       1.0000 0.39575  0.40028  0.78155  Biso   1.000  W
  W4       1.0000 0.61351  0.33810  0.88234  Biso   1.000  W
  W5       1.0000 0.57603  0.20135  0.57834  Biso   1.000  W
  W6       1.0000 0.45477  0.19311  0.88267  Biso   1.000  W
  W7       1.0000 0.76752  0.42583  0.72429  Biso   1.000  W
  W8       1.0000 0.67021  0.05394  0.83172  Biso   1.000  W
  W9       1.0000 0.37832  0.33058  0.62255  Biso   1.000  W
  W10      1.0000 0.81331  0.13643  0.68721  Biso   1.000  W
  W11      1.0000 0.54985  0.49079  0.62414  Biso   1.000  W
  W12      1.0000 0.43288  0.12246  0.72360  Biso   1.000  W
  O29      1.0000 0.34960  0.64400  0.31840  Biso   1.000  O
  Si2      1.0000 0.39800  0.72890  0.27080  Biso   1.000  Si
  O30      1.0000 0.30580  0.85980  0.36680  Biso   1.000  O
  O31      1.0000 0.42630  0.88510  0.12050  Biso   1.000  O
  O32      1.0000 0.47050  0.75070  0.06910  Biso   1.000  O
  O33      1.0000 0.32200  0.58630  0.19660  Biso   1.000  O
  O34      1.0000 0.64350  0.64380  0.28830  Biso   1.000  O
  O35      1.0000 0.27580  0.74810  0.11750  Biso   1.000  O
  O36      1.0000 0.47680  0.75890  0.31540  Biso   1.000  O
  O37      1.0000 0.21710  0.91200  0.12590  Biso   1.000  O
  O38      1.0000 0.34850  0.70290  0.44380  Biso   1.000  O
  O39      1.0000 0.55060  0.72230  0.44450  Biso   1.000  O
  O40      1.0000 0.52600  0.52790  0.28970  Biso   1.000  O
  O41      1.0000 0.18630  0.74520  0.36670  Biso   1.000  O
  O42      1.0000 0.22870  0.96440  0.23850  Biso   1.000  O
  O43      1.0000 0.10670  0.84710  0.24020  Biso   1.000  O
  O44      1.0000 0.63740  0.70430  0.14680  Biso   1.000  O
  O45      1.0000 0.34900  0.53790  0.44220  Biso   1.000  O
  O46      1.0000 0.18210  0.58210  0.36620  Biso   1.000  O
  O47      1.0000 0.51420  0.58960  0.14610  Biso   1.000  O
  O48      1.0000 0.30560  0.80380  0.24150  Biso   1.000  O
  O49      1.0000 0.53670  0.58180  0.39770  Biso   1.000  O
  O50      1.0000 0.16660  0.68430  0.23040  Biso   1.000  O
  O51      1.0000 0.50230  0.88810  0.36500  Biso   1.000  O
  O52      1.0000 0.44160  0.93660  0.23220  Biso   1.000  O
  O53      1.0000 0.33490  0.48470  0.32940  Biso   1.000  O
  O54      1.0000 0.65940  0.78580  0.33020  Biso   1.000  O
  O55      1.0000 0.58930  0.83880  0.19540  Biso   1.000  O
  O56      1.0000 0.46350  0.70780  0.20500  Biso   1.000  O
  W13      1.0000 0.16891  0.80132  0.16670  Biso   1.000  W
  W14      1.0000 0.25346  0.63663  0.42267  Biso   1.000  W
  W15      1.0000 0.60425  0.59972  0.21845  Biso   1.000  W
  W16      1.0000 0.38649  0.66190  0.11766  Biso   1.000  W
  W17      1.0000 0.42397  0.79865  0.42166  Biso   1.000  W
  W18      1.0000 0.54523  0.80689  0.11733  Biso   1.000  W
  W19      1.0000 0.23248  0.57417  0.27571  Biso   1.000  W
  W20      1.0000 0.32979  0.94606  0.16828  Biso   1.000  W
  W21      1.0000 0.62168  0.66942  0.37745  Biso   1.000  W
  W22      1.0000 0.18669  0.86357  0.31279  Biso   1.000  W
  W23      1.0000 0.45015  0.50921  0.37586  Biso   1.000  W
  W24      1.0000 0.56712  0.87754  0.27640  Biso   1.000  W
