data_image0
_cell_length_a       22.2749
_cell_length_b       12.7253
_cell_length_c       17.7334
_cell_angle_alpha    90
_cell_angle_beta     126.335
_cell_angle_gamma    90

_symmetry_space_group_name_H-M    "P 1"
_symmetry_int_tables_number       1

loop_
  _symmetry_equiv_pos_as_xyz
  'x, y, z'

loop_
  _atom_site_label
  _atom_site_occupancy
  _atom_site_fract_x
  _atom_site_fract_y
  _atom_site_fract_z
  _atom_site_thermal_displace_type
  _atom_site_B_iso_or_equiv
  _atom_site_type_symbol
  Zn1      1.0000 0.05216  0.52064  0.10152  Biso   1.000  Zn
  S1       1.0000 0.33493  0.62963  0.92034  Biso   1.000  S
  O1       1.0000 0.96081  0.45915  0.08347  Biso   1.000  O
  O2       1.0000 0.12316  0.56210  0.07107  Biso   1.000  O
  O3       1.0000 0.09448  0.37191  0.12711  Biso   1.000  O
  O4       1.0000 0.98605  0.65117  0.02715  Biso   1.000  O
  O5       1.0000 0.29885  0.66774  0.82682  Biso   1.000  O
  O6       1.0000 0.39742  0.68535  0.99717  Biso   1.000  O
  C1       1.0000 0.06419  0.31835  0.05380  Biso   1.000  C
  C2       1.0000 0.09075  0.20655  0.06283  Biso   1.000  C
  C3       1.0000 0.04977  0.13940  0.98744  Biso   1.000  C
  H1       1.0000 0.00650  0.16350  0.93200  Biso   1.000  H
  C4       1.0000 0.07251  0.03660  0.99362  Biso   1.000  C
  H2       1.0000 0.04460  0.99140  0.94280  Biso   1.000  H
  C5       1.0000 0.13687  0.00160  0.07567  Biso   1.000  C
  C6       1.0000 0.17886  0.06760  0.15218  Biso   1.000  C
  H3       1.0000 0.22220  0.04340  0.20740  Biso   1.000  H
  C7       1.0000 0.15543  0.17020  0.14530  Biso   1.000  C
  H4       1.0000 0.18320  0.21520  0.19630  Biso   1.000  H
  C8       1.0000 0.10328  0.56171  0.98870  Biso   1.000  C
  C9       1.0000 0.16127  0.58452  0.97287  Biso   1.000  C
  C10      1.0000 0.14070  0.58880  0.88260  Biso   1.000  C
  H5       1.0000 0.09080  0.58090  0.83240  Biso   1.000  H
  C11      1.0000 0.19330  0.60460  0.86559  Biso   1.000  C
  H6       1.0000 0.17930  0.60710  0.80470  Biso   1.000  H
  C12      1.0000 0.26711  0.61657  0.94140  Biso   1.000  C
  C13      1.0000 0.28866  0.61430  0.03206  Biso   1.000  C
  H7       1.0000 0.33850  0.62270  0.08210  Biso   1.000  H
  C14      1.0000 0.23555  0.59940  0.04784  Biso   1.000  C
  H8       1.0000 0.24950  0.59930  0.10870  Biso   1.000  H
  Zn2      1.0000 0.55216  0.02064  0.10152  Biso   1.000  Zn
  S2       1.0000 0.83493  0.12963  0.92034  Biso   1.000  S
  O7       1.0000 0.46081  0.95915  0.08347  Biso   1.000  O
  O8       1.0000 0.62316  0.06210  0.07107  Biso   1.000  O
  O9       1.0000 0.59448  0.87191  0.12711  Biso   1.000  O
  O10      1.0000 0.48605  0.15117  0.02715  Biso   1.000  O
  O11      1.0000 0.79885  0.16774  0.82682  Biso   1.000  O
  O12      1.0000 0.89742  0.18535  0.99717  Biso   1.000  O
  C15      1.0000 0.56419  0.81835  0.05380  Biso   1.000  C
  C16      1.0000 0.59075  0.70655  0.06283  Biso   1.000  C
  C17      1.0000 0.54977  0.63940  0.98744  Biso   1.000  C
  H9       1.0000 0.50650  0.66350  0.93200  Biso   1.000  H
  C18      1.0000 0.57251  0.53660  0.99362  Biso   1.000  C
  H10      1.0000 0.54460  0.49140  0.94280  Biso   1.000  H
  C19      1.0000 0.63687  0.50160  0.07567  Biso   1.000  C
  C20      1.0000 0.67886  0.56760  0.15218  Biso   1.000  C
  H11      1.0000 0.72220  0.54340  0.20740  Biso   1.000  H
  C21      1.0000 0.65543  0.67020  0.14530  Biso   1.000  C
  H12      1.0000 0.68320  0.71520  0.19630  Biso   1.000  H
  C22      1.0000 0.60328  0.06171  0.98870  Biso   1.000  C
  C23      1.0000 0.66127  0.08452  0.97287  Biso   1.000  C
  C24      1.0000 0.64070  0.08880  0.88260  Biso   1.000  C
  H13      1.0000 0.59080  0.08090  0.83240  Biso   1.000  H
  C25      1.0000 0.69330  0.10460  0.86559  Biso   1.000  C
  H14      1.0000 0.67930  0.10710  0.80470  Biso   1.000  H
  C26      1.0000 0.76711  0.11657  0.94140  Biso   1.000  C
  C27      1.0000 0.78866  0.11430  0.03206  Biso   1.000  C
  H15      1.0000 0.83850  0.12270  0.08210  Biso   1.000  H
  C28      1.0000 0.73555  0.09940  0.04784  Biso   1.000  C
  H16      1.0000 0.74950  0.09930  0.10870  Biso   1.000  H
  Zn3      1.0000 0.94784  0.47936  0.89848  Biso   1.000  Zn
  S3       1.0000 0.66507  0.37037  0.07966  Biso   1.000  S
  O13      1.0000 0.03919  0.54085  0.91653  Biso   1.000  O
  O14      1.0000 0.87684  0.43790  0.92893  Biso   1.000  O
  O15      1.0000 0.90552  0.62809  0.87289  Biso   1.000  O
  O16      1.0000 0.01395  0.34883  0.97285  Biso   1.000  O
  O17      1.0000 0.70115  0.33226  0.17318  Biso   1.000  O
  O18      1.0000 0.60258  0.31465  0.00283  Biso   1.000  O
  C29      1.0000 0.93581  0.68165  0.94620  Biso   1.000  C
  C30      1.0000 0.90925  0.79345  0.93717  Biso   1.000  C
  C31      1.0000 0.95023  0.86060  0.01256  Biso   1.000  C
  H17      1.0000 0.99350  0.83650  0.06800  Biso   1.000  H
  C32      1.0000 0.92749  0.96340  0.00638  Biso   1.000  C
  H18      1.0000 0.95540  0.00860  0.05720  Biso   1.000  H
  C33      1.0000 0.86313  0.99840  0.92433  Biso   1.000  C
  C34      1.0000 0.82114  0.93240  0.84782  Biso   1.000  C
  H19      1.0000 0.77780  0.95660  0.79260  Biso   1.000  H
  C35      1.0000 0.84457  0.82980  0.85470  Biso   1.000  C
  H20      1.0000 0.81680  0.78480  0.80370  Biso   1.000  H
  C36      1.0000 0.89672  0.43829  0.01130  Biso   1.000  C
  C37      1.0000 0.83873  0.41548  0.02713  Biso   1.000  C
  C38      1.0000 0.85930  0.41120  0.11740  Biso   1.000  C
  H21      1.0000 0.90920  0.41910  0.16760  Biso   1.000  H
  C39      1.0000 0.80670  0.39540  0.13441  Biso   1.000  C
  H22      1.0000 0.82070  0.39290  0.19530  Biso   1.000  H
  C40      1.0000 0.73289  0.38343  0.05860  Biso   1.000  C
  C41      1.0000 0.71134  0.38570  0.96794  Biso   1.000  C
  H23      1.0000 0.66150  0.37730  0.91790  Biso   1.000  H
  C42      1.0000 0.76445  0.40060  0.95216  Biso   1.000  C
  H24      1.0000 0.75050  0.40070  0.89130  Biso   1.000  H
  Zn4      1.0000 0.44784  0.97936  0.89848  Biso   1.000  Zn
  S4       1.0000 0.16507  0.87037  0.07966  Biso   1.000  S
  O19      1.0000 0.53919  0.04085  0.91653  Biso   1.000  O
  O20      1.0000 0.37684  0.93790  0.92893  Biso   1.000  O
  O21      1.0000 0.40552  0.12809  0.87289  Biso   1.000  O
  O22      1.0000 0.51395  0.84883  0.97285  Biso   1.000  O
  O23      1.0000 0.20115  0.83226  0.17318  Biso   1.000  O
  O24      1.0000 0.10258  0.81465  0.00283  Biso   1.000  O
  C43      1.0000 0.43581  0.18165  0.94620  Biso   1.000  C
  C44      1.0000 0.40925  0.29345  0.93717  Biso   1.000  C
  C45      1.0000 0.45023  0.36060  0.01256  Biso   1.000  C
  H25      1.0000 0.49350  0.33650  0.06800  Biso   1.000  H
  C46      1.0000 0.42749  0.46340  0.00638  Biso   1.000  C
  H26      1.0000 0.45540  0.50860  0.05720  Biso   1.000  H
  C47      1.0000 0.36313  0.49840  0.92433  Biso   1.000  C
  C48      1.0000 0.32114  0.43240  0.84782  Biso   1.000  C
  H27      1.0000 0.27780  0.45660  0.79260  Biso   1.000  H
  C49      1.0000 0.34457  0.32980  0.85470  Biso   1.000  C
  H28      1.0000 0.31680  0.28480  0.80370  Biso   1.000  H
  C50      1.0000 0.39672  0.93829  0.01130  Biso   1.000  C
  C51      1.0000 0.33873  0.91548  0.02713  Biso   1.000  C
  C52      1.0000 0.35930  0.91120  0.11740  Biso   1.000  C
  H29      1.0000 0.40920  0.91910  0.16760  Biso   1.000  H
  C53      1.0000 0.30670  0.89540  0.13441  Biso   1.000  C
  H30      1.0000 0.32070  0.89290  0.19530  Biso   1.000  H
  C54      1.0000 0.23289  0.88343  0.05860  Biso   1.000  C
  C55      1.0000 0.21134  0.88570  0.96794  Biso   1.000  C
  H31      1.0000 0.16150  0.87730  0.91790  Biso   1.000  H
  C56      1.0000 0.26445  0.90060  0.95216  Biso   1.000  C
  H32      1.0000 0.25050  0.90070  0.89130  Biso   1.000  H
  Zn5      1.0000 0.94784  0.52064  0.39848  Biso   1.000  Zn
  S5       1.0000 0.66507  0.62963  0.57966  Biso   1.000  S
  O25      1.0000 0.03919  0.45915  0.41653  Biso   1.000  O
  O26      1.0000 0.87684  0.56210  0.42893  Biso   1.000  O
  O27      1.0000 0.90552  0.37191  0.37289  Biso   1.000  O
  O28      1.0000 0.01395  0.65117  0.47285  Biso   1.000  O
  O29      1.0000 0.70115  0.66774  0.67318  Biso   1.000  O
  O30      1.0000 0.60258  0.68535  0.50283  Biso   1.000  O
  C57      1.0000 0.93581  0.31835  0.44620  Biso   1.000  C
  C58      1.0000 0.90925  0.20655  0.43717  Biso   1.000  C
  C59      1.0000 0.95023  0.13940  0.51256  Biso   1.000  C
  H33      1.0000 0.99350  0.16350  0.56800  Biso   1.000  H
  C60      1.0000 0.92749  0.03660  0.50638  Biso   1.000  C
  H34      1.0000 0.95540  0.99140  0.55720  Biso   1.000  H
  C61      1.0000 0.86313  0.00160  0.42433  Biso   1.000  C
  C62      1.0000 0.82114  0.06760  0.34782  Biso   1.000  C
  H35      1.0000 0.77780  0.04340  0.29260  Biso   1.000  H
  C63      1.0000 0.84457  0.17020  0.35470  Biso   1.000  C
  H36      1.0000 0.81680  0.21520  0.30370  Biso   1.000  H
  C64      1.0000 0.89672  0.56171  0.51130  Biso   1.000  C
  C65      1.0000 0.83873  0.58452  0.52713  Biso   1.000  C
  C66      1.0000 0.85930  0.58880  0.61740  Biso   1.000  C
  H37      1.0000 0.90920  0.58090  0.66760  Biso   1.000  H
  C67      1.0000 0.80670  0.60460  0.63441  Biso   1.000  C
  H38      1.0000 0.82070  0.60710  0.69530  Biso   1.000  H
  C68      1.0000 0.73289  0.61657  0.55860  Biso   1.000  C
  C69      1.0000 0.71134  0.61430  0.46794  Biso   1.000  C
  H39      1.0000 0.66150  0.62270  0.41790  Biso   1.000  H
  C70      1.0000 0.76445  0.59940  0.45216  Biso   1.000  C
  H40      1.0000 0.75050  0.59930  0.39130  Biso   1.000  H
  Zn6      1.0000 0.44784  0.02064  0.39848  Biso   1.000  Zn
  S6       1.0000 0.16507  0.12963  0.57966  Biso   1.000  S
  O31      1.0000 0.53919  0.95915  0.41653  Biso   1.000  O
  O32      1.0000 0.37684  0.06210  0.42893  Biso   1.000  O
  O33      1.0000 0.40552  0.87191  0.37289  Biso   1.000  O
  O34      1.0000 0.51395  0.15117  0.47285  Biso   1.000  O
  O35      1.0000 0.20115  0.16774  0.67318  Biso   1.000  O
  O36      1.0000 0.10258  0.18535  0.50283  Biso   1.000  O
  C71      1.0000 0.43581  0.81835  0.44620  Biso   1.000  C
  C72      1.0000 0.40925  0.70655  0.43717  Biso   1.000  C
  C73      1.0000 0.45023  0.63940  0.51256  Biso   1.000  C
  H41      1.0000 0.49350  0.66350  0.56800  Biso   1.000  H
  C74      1.0000 0.42749  0.53660  0.50638  Biso   1.000  C
  H42      1.0000 0.45540  0.49140  0.55720  Biso   1.000  H
  C75      1.0000 0.36313  0.50160  0.42433  Biso   1.000  C
  C76      1.0000 0.32114  0.56760  0.34782  Biso   1.000  C
  H43      1.0000 0.27780  0.54340  0.29260  Biso   1.000  H
  C77      1.0000 0.34457  0.67020  0.35470  Biso   1.000  C
  H44      1.0000 0.31680  0.71520  0.30370  Biso   1.000  H
  C78      1.0000 0.39672  0.06171  0.51130  Biso   1.000  C
  C79      1.0000 0.33873  0.08452  0.52713  Biso   1.000  C
  C80      1.0000 0.35930  0.08880  0.61740  Biso   1.000  C
  H45      1.0000 0.40920  0.08090  0.66760  Biso   1.000  H
  C81      1.0000 0.30670  0.10460  0.63441  Biso   1.000  C
  H46      1.0000 0.32070  0.10710  0.69530  Biso   1.000  H
  C82      1.0000 0.23289  0.11657  0.55860  Biso   1.000  C
  C83      1.0000 0.21134  0.11430  0.46794  Biso   1.000  C
  H47      1.0000 0.16150  0.12270  0.41790  Biso   1.000  H
  C84      1.0000 0.26445  0.09940  0.45216  Biso   1.000  C
  H48      1.0000 0.25050  0.09930  0.39130  Biso   1.000  H
  Zn7      1.0000 0.05216  0.47936  0.60152  Biso   1.000  Zn
  S7       1.0000 0.33493  0.37037  0.42034  Biso   1.000  S
  O37      1.0000 0.96081  0.54085  0.58347  Biso   1.000  O
  O38      1.0000 0.12316  0.43790  0.57107  Biso   1.000  O
  O39      1.0000 0.09448  0.62809  0.62711  Biso   1.000  O
  O40      1.0000 0.98605  0.34883  0.52715  Biso   1.000  O
  O41      1.0000 0.29885  0.33226  0.32682  Biso   1.000  O
  O42      1.0000 0.39742  0.31465  0.49717  Biso   1.000  O
  C85      1.0000 0.06419  0.68165  0.55380  Biso   1.000  C
  C86      1.0000 0.09075  0.79345  0.56283  Biso   1.000  C
  C87      1.0000 0.04977  0.86060  0.48744  Biso   1.000  C
  H49      1.0000 0.00650  0.83650  0.43200  Biso   1.000  H
  C88      1.0000 0.07251  0.96340  0.49362  Biso   1.000  C
  H50      1.0000 0.04460  0.00860  0.44280  Biso   1.000  H
  C89      1.0000 0.13687  0.99840  0.57567  Biso   1.000  C
  C90      1.0000 0.17886  0.93240  0.65218  Biso   1.000  C
  H51      1.0000 0.22220  0.95660  0.70740  Biso   1.000  H
  C91      1.0000 0.15543  0.82980  0.64530  Biso   1.000  C
  H52      1.0000 0.18320  0.78480  0.69630  Biso   1.000  H
  C92      1.0000 0.10328  0.43829  0.48870  Biso   1.000  C
  C93      1.0000 0.16127  0.41548  0.47287  Biso   1.000  C
  C94      1.0000 0.14070  0.41120  0.38260  Biso   1.000  C
  H53      1.0000 0.09080  0.41910  0.33240  Biso   1.000  H
  C95      1.0000 0.19330  0.39540  0.36559  Biso   1.000  C
  H54      1.0000 0.17930  0.39290  0.30470  Biso   1.000  H
  C96      1.0000 0.26711  0.38343  0.44140  Biso   1.000  C
  C97      1.0000 0.28866  0.38570  0.53206  Biso   1.000  C
  H55      1.0000 0.33850  0.37730  0.58210  Biso   1.000  H
  C98      1.0000 0.23555  0.40060  0.54784  Biso   1.000  C
  H56      1.0000 0.24950  0.40070  0.60870  Biso   1.000  H
  Zn8      1.0000 0.55216  0.97936  0.60152  Biso   1.000  Zn
  S8       1.0000 0.83493  0.87037  0.42034  Biso   1.000  S
  O43      1.0000 0.46081  0.04085  0.58347  Biso   1.000  O
  O44      1.0000 0.62316  0.93790  0.57107  Biso   1.000  O
  O45      1.0000 0.59448  0.12809  0.62711  Biso   1.000  O
  O46      1.0000 0.48605  0.84883  0.52715  Biso   1.000  O
  O47      1.0000 0.79885  0.83226  0.32682  Biso   1.000  O
  O48      1.0000 0.89742  0.81465  0.49717  Biso   1.000  O
  C99      1.0000 0.56419  0.18165  0.55380  Biso   1.000  C
  C100     1.0000 0.59075  0.29345  0.56283  Biso   1.000  C
  C101     1.0000 0.54977  0.36060  0.48744  Biso   1.000  C
  H57      1.0000 0.50650  0.33650  0.43200  Biso   1.000  H
  C102     1.0000 0.57251  0.46340  0.49362  Biso   1.000  C
  H58      1.0000 0.54460  0.50860  0.44280  Biso   1.000  H
  C103     1.0000 0.63687  0.49840  0.57567  Biso   1.000  C
  C104     1.0000 0.67886  0.43240  0.65218  Biso   1.000  C
  H59      1.0000 0.72220  0.45660  0.70740  Biso   1.000  H
  C105     1.0000 0.65543  0.32980  0.64530  Biso   1.000  C
  H60      1.0000 0.68320  0.28480  0.69630  Biso   1.000  H
  C106     1.0000 0.60328  0.93829  0.48870  Biso   1.000  C
  C107     1.0000 0.66127  0.91548  0.47287  Biso   1.000  C
  C108     1.0000 0.64070  0.91120  0.38260  Biso   1.000  C
  H61      1.0000 0.59080  0.91910  0.33240  Biso   1.000  H
  C109     1.0000 0.69330  0.89540  0.36559  Biso   1.000  C
  H62      1.0000 0.67930  0.89290  0.30470  Biso   1.000  H
  C110     1.0000 0.76711  0.88343  0.44140  Biso   1.000  C
  C111     1.0000 0.78866  0.88570  0.53206  Biso   1.000  C
  H63      1.0000 0.83850  0.87730  0.58210  Biso   1.000  H
  C112     1.0000 0.73555  0.90060  0.54784  Biso   1.000  C
  H64      1.0000 0.74950  0.90070  0.60870  Biso   1.000  H
