data_image0
_cell_length_a       12.3126
_cell_length_b       20.433
_cell_length_c       23.8954
_cell_angle_alpha    90
_cell_angle_beta     99.7407
_cell_angle_gamma    90

_symmetry_space_group_name_H-M    "P 1"
_symmetry_int_tables_number       1

loop_
  _symmetry_equiv_pos_as_xyz
  'x, y, z'

loop_
  _atom_site_label
  _atom_site_occupancy
  _atom_site_fract_x
  _atom_site_fract_y
  _atom_site_fract_z
  _atom_site_thermal_displace_type
  _atom_site_B_iso_or_equiv
  _atom_site_type_symbol
  Ni1      1.0000 0.01099  0.65925  0.22055  Biso   1.000  Ni
  Ni2      1.0000 0.38578  0.83838  0.17416  Biso   1.000  Ni
  Cl1      1.0000 0.19491  0.84600  0.16343  Biso   1.000  Cl
  N1       1.0000 0.87285  0.60893  0.23577  Biso   1.000  N
  N2       1.0000 0.50590  0.90253  0.15677  Biso   1.000  N
  N3       1.0000 0.51732  0.77440  0.19808  Biso   1.000  N
  H1       1.0000 0.52480  0.74810  0.16370  Biso   1.000  H
  N4       1.0000 0.09833  0.57539  0.25540  Biso   1.000  N
  H2       1.0000 0.09600  0.54280  0.22400  Biso   1.000  H
  N5       1.0000 0.99818  0.70716  0.30184  Biso   1.000  N
  H3       1.0000 0.97950  0.75340  0.29040  Biso   1.000  H
  N6       1.0000 0.96173  0.62192  0.13597  Biso   1.000  N
  H4       1.0000 0.91750  0.65820  0.11520  Biso   1.000  H
  N7       1.0000 0.39864  0.89280  0.25125  Biso   1.000  N
  H5       1.0000 0.46840  0.87990  0.27660  Biso   1.000  H
  C1       1.0000 0.07790  0.66404  0.06914  Biso   1.000  C
  C2       1.0000 0.44380  0.66822  0.22893  Biso   1.000  C
  C3       1.0000 0.29820  0.59574  0.24872  Biso   1.000  C
  C4       1.0000 0.18890  0.74642  0.35064  Biso   1.000  C
  C5       1.0000 0.36480  0.65094  0.26157  Biso   1.000  C
  H6       1.0000 0.35600  0.67720  0.29330  Biso   1.000  H
  N8       1.0000 0.35760  0.82445  0.08404  Biso   1.000  N
  H7       1.0000 0.28640  0.84780  0.07100  Biso   1.000  H
  C6       1.0000 0.30010  0.83303  0.31948  Biso   1.000  C
  C7       1.0000 0.14010  0.77579  0.01486  Biso   1.000  C
  H8       1.0000 0.16090  0.81370  0.99620  Biso   1.000  H
  C8       1.0000 0.07980  0.71454  0.35472  Biso   1.000  C
  H9       1.0000 0.09520  0.67040  0.37130  Biso   1.000  H
  H10      1.0000 0.04470  0.74020  0.38190  Biso   1.000  H
  C9       1.0000 0.31300  0.55675  0.20290  Biso   1.000  C
  H11      1.0000 0.26850  0.51900  0.19370  Biso   1.000  H
  C10      1.0000 0.87960  0.56923  0.13971  Biso   1.000  C
  H12      1.0000 0.91750  0.52830  0.15410  Biso   1.000  H
  H13      1.0000 0.83580  0.56050  0.10180  Biso   1.000  H
  C11      1.0000 0.90810  0.54767  0.26794  Biso   1.000  C
  H14      1.0000 0.89550  0.50990  0.24170  Biso   1.000  H
  H15      1.0000 0.86220  0.54140  0.29770  Biso   1.000  H
  N9       1.0000 0.92600  0.74645  0.18461  Biso   1.000  N
  C12      1.0000 0.45820  0.62834  0.18346  Biso   1.000  C
  H16      1.0000 0.51280  0.63900  0.16120  Biso   1.000  H
  C13      1.0000 0.21450  0.57821  0.28596  Biso   1.000  C
  H17      1.0000 0.23420  0.53510  0.30370  Biso   1.000  H
  H18      1.0000 0.21910  0.61090  0.31690  Biso   1.000  H
  C14      1.0000 0.22040  0.73852  0.04892  Biso   1.000  C
  C15      1.0000 0.51670  0.72698  0.24540  Biso   1.000  C
  H19      1.0000 0.49140  0.74970  0.27740  Biso   1.000  H
  H20      1.0000 0.59300  0.71170  0.25880  Biso   1.000  H
  C16      1.0000 0.39310  0.57304  0.17051  Biso   1.000  C
  H21      1.0000 0.40330  0.54620  0.13940  Biso   1.000  H
  C17      1.0000 0.51400  0.95795  0.19811  Biso   1.000  C
  H22      1.0000 0.51890  0.99980  0.17780  Biso   1.000  H
  H23      1.0000 0.58180  0.95310  0.22670  Biso   1.000  H
  C18      1.0000 0.20030  0.79962  0.31505  Biso   1.000  C
  H24      1.0000 0.13930  0.81310  0.28760  Biso   1.000  H
  C19      1.0000 0.81580  0.65538  0.26848  Biso   1.000  C
  H25      1.0000 0.75400  0.63280  0.28200  Biso   1.000  H
  H26      1.0000 0.78500  0.69190  0.24350  Biso   1.000  H
  C20      1.0000 0.28020  0.72591  0.38927  Biso   1.000  C
  H27      1.0000 0.27410  0.68910  0.41280  Biso   1.000  H
  C21      1.0000 0.99940  0.70198  0.03486  Biso   1.000  C
  H28      1.0000 0.92400  0.68960  0.02970  Biso   1.000  H
  C22      1.0000 0.03010  0.75762  0.00811  Biso   1.000  C
  H29      1.0000 0.97570  0.78330  0.98510  Biso   1.000  H
  C23      1.0000 0.18850  0.68291  0.07595  Biso   1.000  C
  H30      1.0000 0.24280  0.65750  0.09930  Biso   1.000  H
  C24      1.0000 0.91370  0.79236  0.15783  Biso   1.000  C
  C25      1.0000 0.89420  0.68222  0.31874  Biso   1.000  C
  H31      1.0000 0.85780  0.71820  0.33620  Biso   1.000  H
  H32      1.0000 0.91240  0.64730  0.34750  Biso   1.000  H
  C26      1.0000 0.61240  0.86645  0.16329  Biso   1.000  C
  H33      1.0000 0.67450  0.89750  0.17240  Biso   1.000  H
  H34      1.0000 0.61910  0.84400  0.12730  Biso   1.000  H
  C27      1.0000 0.04260  0.60404  0.09857  Biso   1.000  C
  H35      1.0000 0.00890  0.57190  0.06980  Biso   1.000  H
  H36      1.0000 0.10800  0.58340  0.12160  Biso   1.000  H
  C28      1.0000 0.80530  0.59263  0.17997  Biso   1.000  C
  H37      1.0000 0.76390  0.63180  0.16400  Biso   1.000  H
  H38      1.0000 0.75150  0.55800  0.18490  Biso   1.000  H
  C29      1.0000 0.38940  0.81273  0.35946  Biso   1.000  C
  H39      1.0000 0.45720  0.83590  0.36340  Biso   1.000  H
  C30      1.0000 0.43940  0.86415  0.05963  Biso   1.000  C
  H40      1.0000 0.40760  0.87810  0.02060  Biso   1.000  H
  H41      1.0000 0.50610  0.83770  0.05780  Biso   1.000  H
  C31      1.0000 0.33970  0.75905  0.05619  Biso   1.000  C
  H42      1.0000 0.38590  0.72610  0.07950  Biso   1.000  H
  H43      1.0000 0.36300  0.76070  0.01850  Biso   1.000  H
  C32      1.0000 0.30860  0.89454  0.28559  Biso   1.000  C
  H44      1.0000 0.23770  0.90170  0.25990  Biso   1.000  H
  H45      1.0000 0.32080  0.93220  0.31200  Biso   1.000  H
  C33      1.0000 0.61670  0.81686  0.21031  Biso   1.000  C
  H46      1.0000 0.68410  0.78990  0.21270  Biso   1.000  H
  H47      1.0000 0.61850  0.83950  0.24710  Biso   1.000  H
  C34      1.0000 0.41420  0.95926  0.22780  Biso   1.000  C
  H48      1.0000 0.42550  0.99180  0.25890  Biso   1.000  H
  H49      1.0000 0.34780  0.97190  0.20050  Biso   1.000  H
  C35      1.0000 0.46990  0.92395  0.09697  Biso   1.000  C
  H50      1.0000 0.53020  0.94830  0.08360  Biso   1.000  H
  H51      1.0000 0.40550  0.95340  0.09460  Biso   1.000  H
  C36      1.0000 0.02880  0.54905  0.29549  Biso   1.000  C
  H52      1.0000 0.03770  0.57670  0.33000  Biso   1.000  H
  H53      1.0000 0.05330  0.50420  0.30710  Biso   1.000  H
  C37      1.0000 0.90040  0.85210  0.12420  Biso   1.000  C
  H54      1.0000 0.83470  0.84840  0.09470  Biso   1.000  H
  H55      1.0000 0.96550  0.85880  0.10620  Biso   1.000  H
  H56      1.0000 0.89190  0.88940  0.14880  Biso   1.000  H
  C38      1.0000 0.37990  0.75867  0.39374  Biso   1.000  C
  H57      1.0000 0.44160  0.74420  0.42020  Biso   1.000  H
  Ni3      1.0000 0.98901  0.15925  0.27945  Biso   1.000  Ni
  Ni4      1.0000 0.61422  0.33838  0.32584  Biso   1.000  Ni
  Cl2      1.0000 0.80509  0.34600  0.33657  Biso   1.000  Cl
  N10      1.0000 0.12715  0.10893  0.26423  Biso   1.000  N
  N11      1.0000 0.49410  0.40253  0.34323  Biso   1.000  N
  N12      1.0000 0.48268  0.27440  0.30192  Biso   1.000  N
  H58      1.0000 0.47520  0.24810  0.33630  Biso   1.000  H
  N13      1.0000 0.90167  0.07539  0.24460  Biso   1.000  N
  H59      1.0000 0.90400  0.04280  0.27600  Biso   1.000  H
  N14      1.0000 0.00182  0.20716  0.19816  Biso   1.000  N
  H60      1.0000 0.02050  0.25340  0.20960  Biso   1.000  H
  N15      1.0000 0.03827  0.12192  0.36403  Biso   1.000  N
  H61      1.0000 0.08250  0.15820  0.38480  Biso   1.000  H
  N16      1.0000 0.60136  0.39280  0.24875  Biso   1.000  N
  H62      1.0000 0.53160  0.37990  0.22340  Biso   1.000  H
  C39      1.0000 0.92210  0.16404  0.43086  Biso   1.000  C
  C40      1.0000 0.55620  0.16822  0.27107  Biso   1.000  C
  C41      1.0000 0.70180  0.09574  0.25128  Biso   1.000  C
  C42      1.0000 0.81110  0.24642  0.14936  Biso   1.000  C
  C43      1.0000 0.63520  0.15094  0.23843  Biso   1.000  C
  H63      1.0000 0.64400  0.17720  0.20670  Biso   1.000  H
  N17      1.0000 0.64240  0.32445  0.41596  Biso   1.000  N
  H64      1.0000 0.71360  0.34780  0.42900  Biso   1.000  H
  C44      1.0000 0.69990  0.33303  0.18052  Biso   1.000  C
  C45      1.0000 0.85990  0.27579  0.48514  Biso   1.000  C
  H65      1.0000 0.83910  0.31370  0.50380  Biso   1.000  H
  C46      1.0000 0.92020  0.21454  0.14528  Biso   1.000  C
  H66      1.0000 0.90480  0.17040  0.12870  Biso   1.000  H
  H67      1.0000 0.95530  0.24020  0.11810  Biso   1.000  H
  C47      1.0000 0.68700  0.05675  0.29710  Biso   1.000  C
  H68      1.0000 0.73150  0.01900  0.30630  Biso   1.000  H
  C48      1.0000 0.12040  0.06923  0.36029  Biso   1.000  C
  H69      1.0000 0.08250  0.02830  0.34590  Biso   1.000  H
  H70      1.0000 0.16420  0.06050  0.39820  Biso   1.000  H
  C49      1.0000 0.09190  0.04767  0.23206  Biso   1.000  C
  H71      1.0000 0.10450  0.00990  0.25830  Biso   1.000  H
  H72      1.0000 0.13780  0.04140  0.20230  Biso   1.000  H
  N18      1.0000 0.07400  0.24645  0.31539  Biso   1.000  N
  C50      1.0000 0.54180  0.12834  0.31654  Biso   1.000  C
  H73      1.0000 0.48720  0.13900  0.33880  Biso   1.000  H
  C51      1.0000 0.78550  0.07821  0.21404  Biso   1.000  C
  H74      1.0000 0.76580  0.03510  0.19630  Biso   1.000  H
  H75      1.0000 0.78090  0.11090  0.18310  Biso   1.000  H
  C52      1.0000 0.77960  0.23852  0.45108  Biso   1.000  C
  C53      1.0000 0.48330  0.22698  0.25460  Biso   1.000  C
  H76      1.0000 0.50860  0.24970  0.22260  Biso   1.000  H
  H77      1.0000 0.40700  0.21170  0.24120  Biso   1.000  H
  C54      1.0000 0.60690  0.07304  0.32949  Biso   1.000  C
  H78      1.0000 0.59670  0.04620  0.36060  Biso   1.000  H
  C55      1.0000 0.48600  0.45795  0.30189  Biso   1.000  C
  H79      1.0000 0.48110  0.49980  0.32220  Biso   1.000  H
  H80      1.0000 0.41820  0.45310  0.27330  Biso   1.000  H
  C56      1.0000 0.79970  0.29962  0.18495  Biso   1.000  C
  H81      1.0000 0.86070  0.31310  0.21240  Biso   1.000  H
  C57      1.0000 0.18420  0.15538  0.23152  Biso   1.000  C
  H82      1.0000 0.24600  0.13280  0.21800  Biso   1.000  H
  H83      1.0000 0.21500  0.19190  0.25650  Biso   1.000  H
  C58      1.0000 0.71980  0.22591  0.11073  Biso   1.000  C
  H84      1.0000 0.72590  0.18910  0.08720  Biso   1.000  H
  C59      1.0000 0.00060  0.20198  0.46514  Biso   1.000  C
  H85      1.0000 0.07600  0.18960  0.47030  Biso   1.000  H
  C60      1.0000 0.96990  0.25762  0.49189  Biso   1.000  C
  H86      1.0000 0.02430  0.28330  0.51490  Biso   1.000  H
  C61      1.0000 0.81150  0.18291  0.42405  Biso   1.000  C
  H87      1.0000 0.75720  0.15750  0.40070  Biso   1.000  H
  C62      1.0000 0.08630  0.29236  0.34217  Biso   1.000  C
  C63      1.0000 0.10580  0.18222  0.18126  Biso   1.000  C
  H88      1.0000 0.14220  0.21820  0.16380  Biso   1.000  H
  H89      1.0000 0.08760  0.14730  0.15250  Biso   1.000  H
  C64      1.0000 0.38760  0.36645  0.33671  Biso   1.000  C
  H90      1.0000 0.32550  0.39750  0.32760  Biso   1.000  H
  H91      1.0000 0.38090  0.34400  0.37270  Biso   1.000  H
  C65      1.0000 0.95740  0.10404  0.40143  Biso   1.000  C
  H92      1.0000 0.99110  0.07190  0.43020  Biso   1.000  H
  H93      1.0000 0.89200  0.08340  0.37840  Biso   1.000  H
  C66      1.0000 0.19470  0.09263  0.32003  Biso   1.000  C
  H94      1.0000 0.23610  0.13180  0.33600  Biso   1.000  H
  H95      1.0000 0.24850  0.05800  0.31510  Biso   1.000  H
  C67      1.0000 0.61060  0.31273  0.14054  Biso   1.000  C
  H96      1.0000 0.54280  0.33590  0.13660  Biso   1.000  H
  C68      1.0000 0.56060  0.36415  0.44037  Biso   1.000  C
  H97      1.0000 0.59240  0.37810  0.47940  Biso   1.000  H
  H98      1.0000 0.49390  0.33770  0.44220  Biso   1.000  H
  C69      1.0000 0.66030  0.25905  0.44381  Biso   1.000  C
  H99      1.0000 0.61410  0.22610  0.42050  Biso   1.000  H
  H100     1.0000 0.63700  0.26070  0.48150  Biso   1.000  H
  C70      1.0000 0.69140  0.39454  0.21441  Biso   1.000  C
  H101     1.0000 0.76230  0.40170  0.24010  Biso   1.000  H
  H102     1.0000 0.67920  0.43220  0.18800  Biso   1.000  H
  C71      1.0000 0.38330  0.31686  0.28969  Biso   1.000  C
  H103     1.0000 0.31590  0.28990  0.28730  Biso   1.000  H
  H104     1.0000 0.38150  0.33950  0.25290  Biso   1.000  H
  C72      1.0000 0.58580  0.45926  0.27220  Biso   1.000  C
  H105     1.0000 0.57450  0.49180  0.24110  Biso   1.000  H
  H106     1.0000 0.65220  0.47190  0.29950  Biso   1.000  H
  C73      1.0000 0.53010  0.42395  0.40303  Biso   1.000  C
  H107     1.0000 0.46980  0.44830  0.41640  Biso   1.000  H
  H108     1.0000 0.59450  0.45340  0.40540  Biso   1.000  H
  C74      1.0000 0.97120  0.04905  0.20451  Biso   1.000  C
  H109     1.0000 0.96230  0.07670  0.17000  Biso   1.000  H
  H110     1.0000 0.94670  0.00420  0.19290  Biso   1.000  H
  C75      1.0000 0.09960  0.35210  0.37580  Biso   1.000  C
  H111     1.0000 0.16530  0.34840  0.40530  Biso   1.000  H
  H112     1.0000 0.03450  0.35880  0.39380  Biso   1.000  H
  H113     1.0000 0.10810  0.38940  0.35120  Biso   1.000  H
  C76      1.0000 0.62010  0.25867  0.10626  Biso   1.000  C
  H114     1.0000 0.55840  0.24420  0.07980  Biso   1.000  H
  Ni5      1.0000 0.98901  0.34075  0.77945  Biso   1.000  Ni
  Ni6      1.0000 0.61422  0.16162  0.82584  Biso   1.000  Ni
  Cl3      1.0000 0.80509  0.15400  0.83657  Biso   1.000  Cl
  N19      1.0000 0.12715  0.39107  0.76423  Biso   1.000  N
  N20      1.0000 0.49410  0.09747  0.84323  Biso   1.000  N
  N21      1.0000 0.48268  0.22560  0.80192  Biso   1.000  N
  H115     1.0000 0.47520  0.25190  0.83630  Biso   1.000  H
  N22      1.0000 0.90167  0.42461  0.74460  Biso   1.000  N
  H116     1.0000 0.90400  0.45720  0.77600  Biso   1.000  H
  N23      1.0000 0.00182  0.29284  0.69816  Biso   1.000  N
  H117     1.0000 0.02050  0.24660  0.70960  Biso   1.000  H
  N24      1.0000 0.03827  0.37808  0.86403  Biso   1.000  N
  H118     1.0000 0.08250  0.34180  0.88480  Biso   1.000  H
  N25      1.0000 0.60136  0.10720  0.74875  Biso   1.000  N
  H119     1.0000 0.53160  0.12010  0.72340  Biso   1.000  H
  C77      1.0000 0.92210  0.33596  0.93086  Biso   1.000  C
  C78      1.0000 0.55620  0.33178  0.77107  Biso   1.000  C
  C79      1.0000 0.70180  0.40426  0.75128  Biso   1.000  C
  C80      1.0000 0.81110  0.25358  0.64936  Biso   1.000  C
  C81      1.0000 0.63520  0.34906  0.73843  Biso   1.000  C
  H120     1.0000 0.64400  0.32280  0.70670  Biso   1.000  H
  N26      1.0000 0.64240  0.17555  0.91596  Biso   1.000  N
  H121     1.0000 0.71360  0.15220  0.92900  Biso   1.000  H
  C82      1.0000 0.69990  0.16697  0.68052  Biso   1.000  C
  C83      1.0000 0.85990  0.22421  0.98514  Biso   1.000  C
  H122     1.0000 0.83910  0.18630  0.00380  Biso   1.000  H
  C84      1.0000 0.92020  0.28546  0.64528  Biso   1.000  C
  H123     1.0000 0.90480  0.32960  0.62870  Biso   1.000  H
  H124     1.0000 0.95530  0.25980  0.61810  Biso   1.000  H
  C85      1.0000 0.68700  0.44325  0.79710  Biso   1.000  C
  H125     1.0000 0.73150  0.48100  0.80630  Biso   1.000  H
  C86      1.0000 0.12040  0.43077  0.86029  Biso   1.000  C
  H126     1.0000 0.08250  0.47170  0.84590  Biso   1.000  H
  H127     1.0000 0.16420  0.43950  0.89820  Biso   1.000  H
  C87      1.0000 0.09190  0.45233  0.73206  Biso   1.000  C
  H128     1.0000 0.10450  0.49010  0.75830  Biso   1.000  H
  H129     1.0000 0.13780  0.45860  0.70230  Biso   1.000  H
  N27      1.0000 0.07400  0.25355  0.81539  Biso   1.000  N
  C88      1.0000 0.54180  0.37166  0.81654  Biso   1.000  C
  H130     1.0000 0.48720  0.36100  0.83880  Biso   1.000  H
  C89      1.0000 0.78550  0.42179  0.71404  Biso   1.000  C
  H131     1.0000 0.76580  0.46490  0.69630  Biso   1.000  H
  H132     1.0000 0.78090  0.38910  0.68310  Biso   1.000  H
  C90      1.0000 0.77960  0.26148  0.95108  Biso   1.000  C
  C91      1.0000 0.48330  0.27302  0.75460  Biso   1.000  C
  H133     1.0000 0.50860  0.25030  0.72260  Biso   1.000  H
  H134     1.0000 0.40700  0.28830  0.74120  Biso   1.000  H
  C92      1.0000 0.60690  0.42696  0.82949  Biso   1.000  C
  H135     1.0000 0.59670  0.45380  0.86060  Biso   1.000  H
  C93      1.0000 0.48600  0.04205  0.80189  Biso   1.000  C
  H136     1.0000 0.48110  0.00020  0.82220  Biso   1.000  H
  H137     1.0000 0.41820  0.04690  0.77330  Biso   1.000  H
  C94      1.0000 0.79970  0.20038  0.68495  Biso   1.000  C
  H138     1.0000 0.86070  0.18690  0.71240  Biso   1.000  H
  C95      1.0000 0.18420  0.34462  0.73152  Biso   1.000  C
  H139     1.0000 0.24600  0.36720  0.71800  Biso   1.000  H
  H140     1.0000 0.21500  0.30810  0.75650  Biso   1.000  H
  C96      1.0000 0.71980  0.27409  0.61073  Biso   1.000  C
  H141     1.0000 0.72590  0.31090  0.58720  Biso   1.000  H
  C97      1.0000 0.00060  0.29802  0.96514  Biso   1.000  C
  H142     1.0000 0.07600  0.31040  0.97030  Biso   1.000  H
  C98      1.0000 0.96990  0.24238  0.99189  Biso   1.000  C
  H143     1.0000 0.02430  0.21670  0.01490  Biso   1.000  H
  C99      1.0000 0.81150  0.31709  0.92405  Biso   1.000  C
  H144     1.0000 0.75720  0.34250  0.90070  Biso   1.000  H
  C100     1.0000 0.08630  0.20764  0.84217  Biso   1.000  C
  C101     1.0000 0.10580  0.31778  0.68126  Biso   1.000  C
  H145     1.0000 0.14220  0.28180  0.66380  Biso   1.000  H
  H146     1.0000 0.08760  0.35270  0.65250  Biso   1.000  H
  C102     1.0000 0.38760  0.13355  0.83671  Biso   1.000  C
  H147     1.0000 0.32550  0.10250  0.82760  Biso   1.000  H
  H148     1.0000 0.38090  0.15600  0.87270  Biso   1.000  H
  C103     1.0000 0.95740  0.39596  0.90143  Biso   1.000  C
  H149     1.0000 0.99110  0.42810  0.93020  Biso   1.000  H
  H150     1.0000 0.89200  0.41660  0.87840  Biso   1.000  H
  C104     1.0000 0.19470  0.40737  0.82003  Biso   1.000  C
  H151     1.0000 0.23610  0.36820  0.83600  Biso   1.000  H
  H152     1.0000 0.24850  0.44200  0.81510  Biso   1.000  H
  C105     1.0000 0.61060  0.18727  0.64054  Biso   1.000  C
  H153     1.0000 0.54280  0.16410  0.63660  Biso   1.000  H
  C106     1.0000 0.56060  0.13585  0.94037  Biso   1.000  C
  H154     1.0000 0.59240  0.12190  0.97940  Biso   1.000  H
  H155     1.0000 0.49390  0.16230  0.94220  Biso   1.000  H
  C107     1.0000 0.66030  0.24095  0.94381  Biso   1.000  C
  H156     1.0000 0.61410  0.27390  0.92050  Biso   1.000  H
  H157     1.0000 0.63700  0.23930  0.98150  Biso   1.000  H
  C108     1.0000 0.69140  0.10546  0.71441  Biso   1.000  C
  H158     1.0000 0.76230  0.09830  0.74010  Biso   1.000  H
  H159     1.0000 0.67920  0.06780  0.68800  Biso   1.000  H
  C109     1.0000 0.38330  0.18314  0.78969  Biso   1.000  C
  H160     1.0000 0.31590  0.21010  0.78730  Biso   1.000  H
  H161     1.0000 0.38150  0.16050  0.75290  Biso   1.000  H
  C110     1.0000 0.58580  0.04074  0.77220  Biso   1.000  C
  H162     1.0000 0.57450  0.00820  0.74110  Biso   1.000  H
  H163     1.0000 0.65220  0.02810  0.79950  Biso   1.000  H
  C111     1.0000 0.53010  0.07605  0.90303  Biso   1.000  C
  H164     1.0000 0.46980  0.05170  0.91640  Biso   1.000  H
  H165     1.0000 0.59450  0.04660  0.90540  Biso   1.000  H
  C112     1.0000 0.97120  0.45095  0.70451  Biso   1.000  C
  H166     1.0000 0.96230  0.42330  0.67000  Biso   1.000  H
  H167     1.0000 0.94670  0.49580  0.69290  Biso   1.000  H
  C113     1.0000 0.09960  0.14790  0.87580  Biso   1.000  C
  H168     1.0000 0.16530  0.15160  0.90530  Biso   1.000  H
  H169     1.0000 0.03450  0.14120  0.89380  Biso   1.000  H
  H170     1.0000 0.10810  0.11060  0.85120  Biso   1.000  H
  C114     1.0000 0.62010  0.24133  0.60626  Biso   1.000  C
  H171     1.0000 0.55840  0.25580  0.57980  Biso   1.000  H
  Ni7      1.0000 0.01099  0.84075  0.72055  Biso   1.000  Ni
  Ni8      1.0000 0.38578  0.66162  0.67416  Biso   1.000  Ni
  Cl4      1.0000 0.19491  0.65400  0.66343  Biso   1.000  Cl
  N28      1.0000 0.87285  0.89107  0.73577  Biso   1.000  N
  N29      1.0000 0.50590  0.59747  0.65677  Biso   1.000  N
  N30      1.0000 0.51732  0.72560  0.69808  Biso   1.000  N
  H172     1.0000 0.52480  0.75190  0.66370  Biso   1.000  H
  N31      1.0000 0.09833  0.92461  0.75540  Biso   1.000  N
  H173     1.0000 0.09600  0.95720  0.72400  Biso   1.000  H
  N32      1.0000 0.99818  0.79284  0.80184  Biso   1.000  N
  H174     1.0000 0.97950  0.74660  0.79040  Biso   1.000  H
  N33      1.0000 0.96173  0.87808  0.63597  Biso   1.000  N
  H175     1.0000 0.91750  0.84180  0.61520  Biso   1.000  H
  N34      1.0000 0.39864  0.60720  0.75125  Biso   1.000  N
  H176     1.0000 0.46840  0.62010  0.77660  Biso   1.000  H
  C115     1.0000 0.07790  0.83596  0.56914  Biso   1.000  C
  C116     1.0000 0.44380  0.83178  0.72893  Biso   1.000  C
  C117     1.0000 0.29820  0.90426  0.74872  Biso   1.000  C
  C118     1.0000 0.18890  0.75358  0.85064  Biso   1.000  C
  C119     1.0000 0.36480  0.84906  0.76157  Biso   1.000  C
  H177     1.0000 0.35600  0.82280  0.79330  Biso   1.000  H
  N35      1.0000 0.35760  0.67555  0.58404  Biso   1.000  N
  H178     1.0000 0.28640  0.65220  0.57100  Biso   1.000  H
  C120     1.0000 0.30010  0.66697  0.81948  Biso   1.000  C
  C121     1.0000 0.14010  0.72421  0.51486  Biso   1.000  C
  H179     1.0000 0.16090  0.68630  0.49620  Biso   1.000  H
  C122     1.0000 0.07980  0.78546  0.85472  Biso   1.000  C
  H180     1.0000 0.09520  0.82960  0.87130  Biso   1.000  H
  H181     1.0000 0.04470  0.75980  0.88190  Biso   1.000  H
  C123     1.0000 0.31300  0.94325  0.70290  Biso   1.000  C
  H182     1.0000 0.26850  0.98100  0.69370  Biso   1.000  H
  C124     1.0000 0.87960  0.93077  0.63971  Biso   1.000  C
  H183     1.0000 0.91750  0.97170  0.65410  Biso   1.000  H
  H184     1.0000 0.83580  0.93950  0.60180  Biso   1.000  H
  C125     1.0000 0.90810  0.95233  0.76794  Biso   1.000  C
  H185     1.0000 0.89550  0.99010  0.74170  Biso   1.000  H
  H186     1.0000 0.86220  0.95860  0.79770  Biso   1.000  H
  N36      1.0000 0.92600  0.75355  0.68461  Biso   1.000  N
  C126     1.0000 0.45820  0.87166  0.68346  Biso   1.000  C
  H187     1.0000 0.51280  0.86100  0.66120  Biso   1.000  H
  C127     1.0000 0.21450  0.92179  0.78596  Biso   1.000  C
  H188     1.0000 0.23420  0.96490  0.80370  Biso   1.000  H
  H189     1.0000 0.21910  0.88910  0.81690  Biso   1.000  H
  C128     1.0000 0.22040  0.76148  0.54892  Biso   1.000  C
  C129     1.0000 0.51670  0.77302  0.74540  Biso   1.000  C
  H190     1.0000 0.49140  0.75030  0.77740  Biso   1.000  H
  H191     1.0000 0.59300  0.78830  0.75880  Biso   1.000  H
  C130     1.0000 0.39310  0.92696  0.67051  Biso   1.000  C
  H192     1.0000 0.40330  0.95380  0.63940  Biso   1.000  H
  C131     1.0000 0.51400  0.54205  0.69811  Biso   1.000  C
  H193     1.0000 0.51890  0.50020  0.67780  Biso   1.000  H
  H194     1.0000 0.58180  0.54690  0.72670  Biso   1.000  H
  C132     1.0000 0.20030  0.70038  0.81505  Biso   1.000  C
  H195     1.0000 0.13930  0.68690  0.78760  Biso   1.000  H
  C133     1.0000 0.81580  0.84462  0.76848  Biso   1.000  C
  H196     1.0000 0.75400  0.86720  0.78200  Biso   1.000  H
  H197     1.0000 0.78500  0.80810  0.74350  Biso   1.000  H
  C134     1.0000 0.28020  0.77409  0.88927  Biso   1.000  C
  H198     1.0000 0.27410  0.81090  0.91280  Biso   1.000  H
  C135     1.0000 0.99940  0.79802  0.53486  Biso   1.000  C
  H199     1.0000 0.92400  0.81040  0.52970  Biso   1.000  H
  C136     1.0000 0.03010  0.74238  0.50811  Biso   1.000  C
  H200     1.0000 0.97570  0.71670  0.48510  Biso   1.000  H
  C137     1.0000 0.18850  0.81709  0.57595  Biso   1.000  C
  H201     1.0000 0.24280  0.84250  0.59930  Biso   1.000  H
  C138     1.0000 0.91370  0.70764  0.65783  Biso   1.000  C
  C139     1.0000 0.89420  0.81778  0.81874  Biso   1.000  C
  H202     1.0000 0.85780  0.78180  0.83620  Biso   1.000  H
  H203     1.0000 0.91240  0.85270  0.84750  Biso   1.000  H
  C140     1.0000 0.61240  0.63355  0.66329  Biso   1.000  C
  H204     1.0000 0.67450  0.60250  0.67240  Biso   1.000  H
  H205     1.0000 0.61910  0.65600  0.62730  Biso   1.000  H
  C141     1.0000 0.04260  0.89596  0.59857  Biso   1.000  C
  H206     1.0000 0.00890  0.92810  0.56980  Biso   1.000  H
  H207     1.0000 0.10800  0.91660  0.62160  Biso   1.000  H
  C142     1.0000 0.80530  0.90737  0.67997  Biso   1.000  C
  H208     1.0000 0.76390  0.86820  0.66400  Biso   1.000  H
  H209     1.0000 0.75150  0.94200  0.68490  Biso   1.000  H
  C143     1.0000 0.38940  0.68727  0.85946  Biso   1.000  C
  H210     1.0000 0.45720  0.66410  0.86340  Biso   1.000  H
  C144     1.0000 0.43940  0.63585  0.55963  Biso   1.000  C
  H211     1.0000 0.40760  0.62190  0.52060  Biso   1.000  H
  H212     1.0000 0.50610  0.66230  0.55780  Biso   1.000  H
  C145     1.0000 0.33970  0.74095  0.55619  Biso   1.000  C
  H213     1.0000 0.38590  0.77390  0.57950  Biso   1.000  H
  H214     1.0000 0.36300  0.73930  0.51850  Biso   1.000  H
  C146     1.0000 0.30860  0.60546  0.78559  Biso   1.000  C
  H215     1.0000 0.23770  0.59830  0.75990  Biso   1.000  H
  H216     1.0000 0.32080  0.56780  0.81200  Biso   1.000  H
  C147     1.0000 0.61670  0.68314  0.71031  Biso   1.000  C
  H217     1.0000 0.68410  0.71010  0.71270  Biso   1.000  H
  H218     1.0000 0.61850  0.66050  0.74710  Biso   1.000  H
  C148     1.0000 0.41420  0.54074  0.72780  Biso   1.000  C
  H219     1.0000 0.42550  0.50820  0.75890  Biso   1.000  H
  H220     1.0000 0.34780  0.52810  0.70050  Biso   1.000  H
  C149     1.0000 0.46990  0.57605  0.59697  Biso   1.000  C
  H221     1.0000 0.53020  0.55170  0.58360  Biso   1.000  H
  H222     1.0000 0.40550  0.54660  0.59460  Biso   1.000  H
  C150     1.0000 0.02880  0.95095  0.79549  Biso   1.000  C
  H223     1.0000 0.03770  0.92330  0.83000  Biso   1.000  H
  H224     1.0000 0.05330  0.99580  0.80710  Biso   1.000  H
  C151     1.0000 0.90040  0.64790  0.62420  Biso   1.000  C
  H225     1.0000 0.83470  0.65160  0.59470  Biso   1.000  H
  H226     1.0000 0.96550  0.64120  0.60620  Biso   1.000  H
  H227     1.0000 0.89190  0.61060  0.64880  Biso   1.000  H
  C152     1.0000 0.37990  0.74133  0.89374  Biso   1.000  C
  H228     1.0000 0.44160  0.75580  0.92020  Biso   1.000  H
