data_image0
_cell_length_a       12.703
_cell_length_b       9.444
_cell_length_c       29.401
_cell_angle_alpha    90
_cell_angle_beta     90
_cell_angle_gamma    90

_symmetry_space_group_name_H-M    "P 1"
_symmetry_int_tables_number       1

loop_
  _symmetry_equiv_pos_as_xyz
  'x, y, z'

loop_
  _atom_site_label
  _atom_site_occupancy
  _atom_site_fract_x
  _atom_site_fract_y
  _atom_site_fract_z
  _atom_site_thermal_displace_type
  _atom_site_B_iso_or_equiv
  _atom_site_type_symbol
  Cd1      1.0000 0.09193  0.03113  0.28436  Biso   1.000  Cd
  O1       1.0000 0.81720  0.44120  0.87624  Biso   1.000  O
  O2       1.0000 0.95480  0.48130  0.92102  Biso   1.000  O
  H1       1.0000 0.97850  0.51790  0.89790  Biso   1.000  H
  O3       1.0000 0.86050  0.28870  0.07311  Biso   1.000  O
  O4       1.0000 0.12990  0.76730  0.30471  Biso   1.000  O
  O5       1.0000 0.03650  0.90990  0.34730  Biso   1.000  O
  O6       1.0000 0.08680  0.14510  0.21203  Biso   1.000  O
  O7       1.0000 0.02240  0.92940  0.21650  Biso   1.000  O
  C1       1.0000 0.81120  0.28990  0.03030  Biso   1.000  C
  C2       1.0000 0.85950  0.35740  0.99503  Biso   1.000  C
  H2       1.0000 0.92540  0.39820  0.99900  Biso   1.000  H
  C3       1.0000 0.80970  0.36490  0.95305  Biso   1.000  C
  C4       1.0000 0.85930  0.43320  0.91286  Biso   1.000  C
  C5       1.0000 0.71080  0.30350  0.94768  Biso   1.000  C
  H3       1.0000 0.67700  0.30730  0.91970  Biso   1.000  H
  C6       1.0000 0.66350  0.23750  0.98374  Biso   1.000  C
  H4       1.0000 0.59690  0.19810  0.98020  Biso   1.000  H
  C7       1.0000 0.71370  0.22880  0.02535  Biso   1.000  C
  H5       1.0000 0.68200  0.18220  0.04960  Biso   1.000  H
  C8       1.0000 0.91590  0.16840  0.08538  Biso   1.000  C
  C9       1.0000 0.95200  0.16730  0.13016  Biso   1.000  C
  C10      1.0000 0.07430  0.78860  0.33843  Biso   1.000  C
  C11      1.0000 0.00670  0.04840  0.14583  Biso   1.000  C
  C12      1.0000 0.04180  0.04080  0.19463  Biso   1.000  C
  C13      1.0000 0.02570  0.93500  0.11722  Biso   1.000  C
  H6       1.0000 0.06110  0.85550  0.12790  Biso   1.000  H
  C14      1.0000 0.99150  0.94050  0.07241  Biso   1.000  C
  H7       1.0000 0.00730  0.86630  0.05280  Biso   1.000  H
  C15      1.0000 0.93390  0.05560  0.05652  Biso   1.000  C
  H8       1.0000 0.90800  0.05660  0.02690  Biso   1.000  H
  Cd2      1.0000 0.90807  0.53113  0.21564  Biso   1.000  Cd
  O8       1.0000 0.18280  0.94120  0.62376  Biso   1.000  O
  O9       1.0000 0.04520  0.98130  0.57898  Biso   1.000  O
  H9       1.0000 0.02150  0.01790  0.60210  Biso   1.000  H
  O10      1.0000 0.13950  0.78870  0.42689  Biso   1.000  O
  O11      1.0000 0.87010  0.26730  0.19529  Biso   1.000  O
  O12      1.0000 0.96350  0.40990  0.15270  Biso   1.000  O
  O13      1.0000 0.91320  0.64510  0.28797  Biso   1.000  O
  O14      1.0000 0.97760  0.42940  0.28350  Biso   1.000  O
  C16      1.0000 0.18880  0.78990  0.46970  Biso   1.000  C
  C17      1.0000 0.14050  0.85740  0.50497  Biso   1.000  C
  H10      1.0000 0.07460  0.89820  0.50100  Biso   1.000  H
  C18      1.0000 0.19030  0.86490  0.54695  Biso   1.000  C
  C19      1.0000 0.14070  0.93320  0.58714  Biso   1.000  C
  C20      1.0000 0.28920  0.80350  0.55232  Biso   1.000  C
  H11      1.0000 0.32300  0.80730  0.58030  Biso   1.000  H
  C21      1.0000 0.33650  0.73750  0.51626  Biso   1.000  C
  H12      1.0000 0.40310  0.69810  0.51980  Biso   1.000  H
  C22      1.0000 0.28630  0.72880  0.47465  Biso   1.000  C
  H13      1.0000 0.31800  0.68220  0.45040  Biso   1.000  H
  C23      1.0000 0.08410  0.66840  0.41462  Biso   1.000  C
  C24      1.0000 0.04800  0.66730  0.36984  Biso   1.000  C
  C25      1.0000 0.92570  0.28860  0.16157  Biso   1.000  C
  C26      1.0000 0.99330  0.54840  0.35417  Biso   1.000  C
  C27      1.0000 0.95820  0.54080  0.30537  Biso   1.000  C
  C28      1.0000 0.97430  0.43500  0.38278  Biso   1.000  C
  H14      1.0000 0.93890  0.35550  0.37210  Biso   1.000  H
  C29      1.0000 0.00850  0.44050  0.42759  Biso   1.000  C
  H15      1.0000 0.99270  0.36630  0.44720  Biso   1.000  H
  C30      1.0000 0.06610  0.55560  0.44348  Biso   1.000  C
  H16      1.0000 0.09200  0.55660  0.47310  Biso   1.000  H
  Cd3      1.0000 0.40807  0.96887  0.78436  Biso   1.000  Cd
  O15      1.0000 0.68280  0.55880  0.37624  Biso   1.000  O
  O16      1.0000 0.54520  0.51870  0.42102  Biso   1.000  O
  H17      1.0000 0.52150  0.48210  0.39790  Biso   1.000  H
  O17      1.0000 0.63950  0.71130  0.57311  Biso   1.000  O
  O18      1.0000 0.37010  0.23270  0.80471  Biso   1.000  O
  O19      1.0000 0.46350  0.09010  0.84730  Biso   1.000  O
  O20      1.0000 0.41320  0.85490  0.71203  Biso   1.000  O
  O21      1.0000 0.47760  0.07060  0.71650  Biso   1.000  O
  C31      1.0000 0.68880  0.71010  0.53030  Biso   1.000  C
  C32      1.0000 0.64050  0.64260  0.49503  Biso   1.000  C
  H18      1.0000 0.57460  0.60180  0.49900  Biso   1.000  H
  C33      1.0000 0.69030  0.63510  0.45305  Biso   1.000  C
  C34      1.0000 0.64070  0.56680  0.41286  Biso   1.000  C
  C35      1.0000 0.78920  0.69650  0.44768  Biso   1.000  C
  H19      1.0000 0.82300  0.69270  0.41970  Biso   1.000  H
  C36      1.0000 0.83650  0.76250  0.48374  Biso   1.000  C
  H20      1.0000 0.90310  0.80190  0.48020  Biso   1.000  H
  C37      1.0000 0.78630  0.77120  0.52535  Biso   1.000  C
  H21      1.0000 0.81800  0.81780  0.54960  Biso   1.000  H
  C38      1.0000 0.58410  0.83160  0.58538  Biso   1.000  C
  C39      1.0000 0.54800  0.83270  0.63016  Biso   1.000  C
  C40      1.0000 0.42570  0.21140  0.83843  Biso   1.000  C
  C41      1.0000 0.49330  0.95160  0.64583  Biso   1.000  C
  C42      1.0000 0.45820  0.95920  0.69463  Biso   1.000  C
  C43      1.0000 0.47430  0.06500  0.61722  Biso   1.000  C
  H22      1.0000 0.43890  0.14450  0.62790  Biso   1.000  H
  C44      1.0000 0.50850  0.05950  0.57241  Biso   1.000  C
  H23      1.0000 0.49270  0.13370  0.55280  Biso   1.000  H
  C45      1.0000 0.56610  0.94440  0.55652  Biso   1.000  C
  H24      1.0000 0.59200  0.94340  0.52690  Biso   1.000  H
  Cd4      1.0000 0.59193  0.46887  0.71564  Biso   1.000  Cd
  O22      1.0000 0.31720  0.05880  0.12376  Biso   1.000  O
  O23      1.0000 0.45480  0.01870  0.07898  Biso   1.000  O
  H25      1.0000 0.47850  0.98210  0.10210  Biso   1.000  H
  O24      1.0000 0.36050  0.21130  0.92689  Biso   1.000  O
  O25      1.0000 0.62990  0.73270  0.69529  Biso   1.000  O
  O26      1.0000 0.53650  0.59010  0.65270  Biso   1.000  O
  O27      1.0000 0.58680  0.35490  0.78797  Biso   1.000  O
  O28      1.0000 0.52240  0.57060  0.78350  Biso   1.000  O
  C46      1.0000 0.31120  0.21010  0.96970  Biso   1.000  C
  C47      1.0000 0.35950  0.14260  0.00497  Biso   1.000  C
  H26      1.0000 0.42540  0.10180  0.00100  Biso   1.000  H
  C48      1.0000 0.30970  0.13510  0.04695  Biso   1.000  C
  C49      1.0000 0.35930  0.06680  0.08714  Biso   1.000  C
  C50      1.0000 0.21080  0.19650  0.05232  Biso   1.000  C
  H27      1.0000 0.17700  0.19270  0.08030  Biso   1.000  H
  C51      1.0000 0.16350  0.26250  0.01626  Biso   1.000  C
  H28      1.0000 0.09690  0.30190  0.01980  Biso   1.000  H
  C52      1.0000 0.21370  0.27120  0.97465  Biso   1.000  C
  H29      1.0000 0.18200  0.31780  0.95040  Biso   1.000  H
  C53      1.0000 0.41590  0.33160  0.91462  Biso   1.000  C
  C54      1.0000 0.45200  0.33270  0.86984  Biso   1.000  C
  C55      1.0000 0.57430  0.71140  0.66157  Biso   1.000  C
  C56      1.0000 0.50670  0.45160  0.85417  Biso   1.000  C
  C57      1.0000 0.54180  0.45920  0.80537  Biso   1.000  C
  C58      1.0000 0.52570  0.56500  0.88278  Biso   1.000  C
  H30      1.0000 0.56110  0.64450  0.87210  Biso   1.000  H
  C59      1.0000 0.49150  0.55950  0.92759  Biso   1.000  C
  H31      1.0000 0.50730  0.63370  0.94720  Biso   1.000  H
  C60      1.0000 0.43390  0.44440  0.94348  Biso   1.000  C
  H32      1.0000 0.40800  0.44340  0.97310  Biso   1.000  H
  Cd5      1.0000 0.90807  0.96887  0.71564  Biso   1.000  Cd
  O29      1.0000 0.18280  0.55880  0.12376  Biso   1.000  O
  O30      1.0000 0.04520  0.51870  0.07898  Biso   1.000  O
  H33      1.0000 0.02150  0.48210  0.10210  Biso   1.000  H
  O31      1.0000 0.13950  0.71130  0.92689  Biso   1.000  O
  O32      1.0000 0.87010  0.23270  0.69529  Biso   1.000  O
  O33      1.0000 0.96350  0.09010  0.65270  Biso   1.000  O
  O34      1.0000 0.91320  0.85490  0.78797  Biso   1.000  O
  O35      1.0000 0.97760  0.07060  0.78350  Biso   1.000  O
  C61      1.0000 0.18880  0.71010  0.96970  Biso   1.000  C
  C62      1.0000 0.14050  0.64260  0.00497  Biso   1.000  C
  H34      1.0000 0.07460  0.60180  0.00100  Biso   1.000  H
  C63      1.0000 0.19030  0.63510  0.04695  Biso   1.000  C
  C64      1.0000 0.14070  0.56680  0.08714  Biso   1.000  C
  C65      1.0000 0.28920  0.69650  0.05232  Biso   1.000  C
  H35      1.0000 0.32300  0.69270  0.08030  Biso   1.000  H
  C66      1.0000 0.33650  0.76250  0.01626  Biso   1.000  C
  H36      1.0000 0.40310  0.80190  0.01980  Biso   1.000  H
  C67      1.0000 0.28630  0.77120  0.97465  Biso   1.000  C
  H37      1.0000 0.31800  0.81780  0.95040  Biso   1.000  H
  C68      1.0000 0.08410  0.83160  0.91462  Biso   1.000  C
  C69      1.0000 0.04800  0.83270  0.86984  Biso   1.000  C
  C70      1.0000 0.92570  0.21140  0.66157  Biso   1.000  C
  C71      1.0000 0.99330  0.95160  0.85417  Biso   1.000  C
  C72      1.0000 0.95820  0.95920  0.80537  Biso   1.000  C
  C73      1.0000 0.97430  0.06500  0.88278  Biso   1.000  C
  H38      1.0000 0.93890  0.14450  0.87210  Biso   1.000  H
  C74      1.0000 0.00850  0.05950  0.92759  Biso   1.000  C
  H39      1.0000 0.99270  0.13370  0.94720  Biso   1.000  H
  C75      1.0000 0.06610  0.94440  0.94348  Biso   1.000  C
  H40      1.0000 0.09200  0.94340  0.97310  Biso   1.000  H
  Cd6      1.0000 0.09193  0.46887  0.78436  Biso   1.000  Cd
  O36      1.0000 0.81720  0.05880  0.37624  Biso   1.000  O
  O37      1.0000 0.95480  0.01870  0.42102  Biso   1.000  O
  H41      1.0000 0.97850  0.98210  0.39790  Biso   1.000  H
  O38      1.0000 0.86050  0.21130  0.57311  Biso   1.000  O
  O39      1.0000 0.12990  0.73270  0.80471  Biso   1.000  O
  O40      1.0000 0.03650  0.59010  0.84730  Biso   1.000  O
  O41      1.0000 0.08680  0.35490  0.71203  Biso   1.000  O
  O42      1.0000 0.02240  0.57060  0.71650  Biso   1.000  O
  C76      1.0000 0.81120  0.21010  0.53030  Biso   1.000  C
  C77      1.0000 0.85950  0.14260  0.49503  Biso   1.000  C
  H42      1.0000 0.92540  0.10180  0.49900  Biso   1.000  H
  C78      1.0000 0.80970  0.13510  0.45305  Biso   1.000  C
  C79      1.0000 0.85930  0.06680  0.41286  Biso   1.000  C
  C80      1.0000 0.71080  0.19650  0.44768  Biso   1.000  C
  H43      1.0000 0.67700  0.19270  0.41970  Biso   1.000  H
  C81      1.0000 0.66350  0.26250  0.48374  Biso   1.000  C
  H44      1.0000 0.59690  0.30190  0.48020  Biso   1.000  H
  C82      1.0000 0.71370  0.27120  0.52535  Biso   1.000  C
  H45      1.0000 0.68200  0.31780  0.54960  Biso   1.000  H
  C83      1.0000 0.91590  0.33160  0.58538  Biso   1.000  C
  C84      1.0000 0.95200  0.33270  0.63016  Biso   1.000  C
  C85      1.0000 0.07430  0.71140  0.83843  Biso   1.000  C
  C86      1.0000 0.00670  0.45160  0.64583  Biso   1.000  C
  C87      1.0000 0.04180  0.45920  0.69463  Biso   1.000  C
  C88      1.0000 0.02570  0.56500  0.61722  Biso   1.000  C
  H46      1.0000 0.06110  0.64450  0.62790  Biso   1.000  H
  C89      1.0000 0.99150  0.55950  0.57241  Biso   1.000  C
  H47      1.0000 0.00730  0.63370  0.55280  Biso   1.000  H
  C90      1.0000 0.93390  0.44440  0.55652  Biso   1.000  C
  H48      1.0000 0.90800  0.44340  0.52690  Biso   1.000  H
  Cd7      1.0000 0.59193  0.03113  0.21564  Biso   1.000  Cd
  O43      1.0000 0.31720  0.44120  0.62376  Biso   1.000  O
  O44      1.0000 0.45480  0.48130  0.57898  Biso   1.000  O
  H49      1.0000 0.47850  0.51790  0.60210  Biso   1.000  H
  O45      1.0000 0.36050  0.28870  0.42689  Biso   1.000  O
  O46      1.0000 0.62990  0.76730  0.19529  Biso   1.000  O
  O47      1.0000 0.53650  0.90990  0.15270  Biso   1.000  O
  O48      1.0000 0.58680  0.14510  0.28797  Biso   1.000  O
  O49      1.0000 0.52240  0.92940  0.28350  Biso   1.000  O
  C91      1.0000 0.31120  0.28990  0.46970  Biso   1.000  C
  C92      1.0000 0.35950  0.35740  0.50497  Biso   1.000  C
  H50      1.0000 0.42540  0.39820  0.50100  Biso   1.000  H
  C93      1.0000 0.30970  0.36490  0.54695  Biso   1.000  C
  C94      1.0000 0.35930  0.43320  0.58714  Biso   1.000  C
  C95      1.0000 0.21080  0.30350  0.55232  Biso   1.000  C
  H51      1.0000 0.17700  0.30730  0.58030  Biso   1.000  H
  C96      1.0000 0.16350  0.23750  0.51626  Biso   1.000  C
  H52      1.0000 0.09690  0.19810  0.51980  Biso   1.000  H
  C97      1.0000 0.21370  0.22880  0.47465  Biso   1.000  C
  H53      1.0000 0.18200  0.18220  0.45040  Biso   1.000  H
  C98      1.0000 0.41590  0.16840  0.41462  Biso   1.000  C
  C99      1.0000 0.45200  0.16730  0.36984  Biso   1.000  C
  C100     1.0000 0.57430  0.78860  0.16157  Biso   1.000  C
  C101     1.0000 0.50670  0.04840  0.35417  Biso   1.000  C
  C102     1.0000 0.54180  0.04080  0.30537  Biso   1.000  C
  C103     1.0000 0.52570  0.93500  0.38278  Biso   1.000  C
  H54      1.0000 0.56110  0.85550  0.37210  Biso   1.000  H
  C104     1.0000 0.49150  0.94050  0.42759  Biso   1.000  C
  H55      1.0000 0.50730  0.86630  0.44720  Biso   1.000  H
  C105     1.0000 0.43390  0.05560  0.44348  Biso   1.000  C
  H56      1.0000 0.40800  0.05660  0.47310  Biso   1.000  H
  Cd8      1.0000 0.40807  0.53113  0.28436  Biso   1.000  Cd
  O50      1.0000 0.68280  0.94120  0.87624  Biso   1.000  O
  O51      1.0000 0.54520  0.98130  0.92102  Biso   1.000  O
  H57      1.0000 0.52150  0.01790  0.89790  Biso   1.000  H
  O52      1.0000 0.63950  0.78870  0.07311  Biso   1.000  O
  O53      1.0000 0.37010  0.26730  0.30471  Biso   1.000  O
  O54      1.0000 0.46350  0.40990  0.34730  Biso   1.000  O
  O55      1.0000 0.41320  0.64510  0.21203  Biso   1.000  O
  O56      1.0000 0.47760  0.42940  0.21650  Biso   1.000  O
  C106     1.0000 0.68880  0.78990  0.03030  Biso   1.000  C
  C107     1.0000 0.64050  0.85740  0.99503  Biso   1.000  C
  H58      1.0000 0.57460  0.89820  0.99900  Biso   1.000  H
  C108     1.0000 0.69030  0.86490  0.95305  Biso   1.000  C
  C109     1.0000 0.64070  0.93320  0.91286  Biso   1.000  C
  C110     1.0000 0.78920  0.80350  0.94768  Biso   1.000  C
  H59      1.0000 0.82300  0.80730  0.91970  Biso   1.000  H
  C111     1.0000 0.83650  0.73750  0.98374  Biso   1.000  C
  H60      1.0000 0.90310  0.69810  0.98020  Biso   1.000  H
  C112     1.0000 0.78630  0.72880  0.02535  Biso   1.000  C
  H61      1.0000 0.81800  0.68220  0.04960  Biso   1.000  H
  C113     1.0000 0.58410  0.66840  0.08538  Biso   1.000  C
  C114     1.0000 0.54800  0.66730  0.13016  Biso   1.000  C
  C115     1.0000 0.42570  0.28860  0.33843  Biso   1.000  C
  C116     1.0000 0.49330  0.54840  0.14583  Biso   1.000  C
  C117     1.0000 0.45820  0.54080  0.19463  Biso   1.000  C
  C118     1.0000 0.47430  0.43500  0.11722  Biso   1.000  C
  H62      1.0000 0.43890  0.35550  0.12790  Biso   1.000  H
  C119     1.0000 0.50850  0.44050  0.07241  Biso   1.000  C
  H63      1.0000 0.49270  0.36630  0.05280  Biso   1.000  H
  C120     1.0000 0.56610  0.55560  0.05652  Biso   1.000  C
  H64      1.0000 0.59200  0.55660  0.02690  Biso   1.000  H
