data_image0
_cell_length_a       18.6449
_cell_length_b       27.2267
_cell_length_c       8.8932
_cell_angle_alpha    90
_cell_angle_beta     107.482
_cell_angle_gamma    90

_symmetry_space_group_name_H-M    "P 1"
_symmetry_int_tables_number       1

loop_
  _symmetry_equiv_pos_as_xyz
  'x, y, z'

loop_
  _atom_site_label
  _atom_site_occupancy
  _atom_site_fract_x
  _atom_site_fract_y
  _atom_site_fract_z
  _atom_site_thermal_displace_type
  _atom_site_B_iso_or_equiv
  _atom_site_type_symbol
  C1       1.0000 0.57580  0.06610  0.69570  Biso   1.000  C
  C2       1.0000 0.61830  0.10290  0.81300  Biso   1.000  C
  C3       1.0000 0.69570  0.10880  0.84170  Biso   1.000  C
  H1       1.0000 0.72110  0.08980  0.78730  Biso   1.000  H
  C4       1.0000 0.73440  0.14290  0.95130  Biso   1.000  C
  H2       1.0000 0.78600  0.14650  0.97060  Biso   1.000  H
  C5       1.0000 0.69700  0.17210  0.03380  Biso   1.000  C
  C6       1.0000 0.61860  0.16640  0.00200  Biso   1.000  C
  H3       1.0000 0.59270  0.18610  0.05370  Biso   1.000  H
  C7       1.0000 0.58010  0.13190  0.89480  Biso   1.000  C
  H4       1.0000 0.52870  0.12770  0.87660  Biso   1.000  H
  C8       1.0000 0.73460  0.20830  0.14580  Biso   1.000  C
  C9       1.0000 0.76300  0.23910  0.24350  Biso   1.000  C
  C10      1.0000 0.79220  0.27640  0.35820  Biso   1.000  C
  C11      1.0000 0.86740  0.28020  0.43900  Biso   1.000  C
  C12      1.0000 0.89600  0.31680  0.54570  Biso   1.000  C
  C13      1.0000 0.84820  0.35060  0.57990  Biso   1.000  C
  C14      1.0000 0.77310  0.34760  0.50390  Biso   1.000  C
  C15      1.0000 0.74620  0.31130  0.39330  Biso   1.000  C
  O1       1.0000 0.60410  0.05208  0.59070  Biso   1.000  O
  O2       1.0000 0.51310  0.05230  0.71210  Biso   1.000  O
  F1       1.0000 0.91410  0.24700  0.41060  Biso   1.000  F
  F2       1.0000 0.96820  0.31900  0.62450  Biso   1.000  F
  F3       1.0000 0.87590  0.38573  0.68620  Biso   1.000  F
  F4       1.0000 0.72660  0.38000  0.53620  Biso   1.000  F
  F5       1.0000 0.67260  0.30870  0.32330  Biso   1.000  F
  C16      1.0000 0.42420  0.06610  0.30430  Biso   1.000  C
  C17      1.0000 0.38170  0.10290  0.18700  Biso   1.000  C
  C18      1.0000 0.30430  0.10880  0.15830  Biso   1.000  C
  H5       1.0000 0.27890  0.08980  0.21270  Biso   1.000  H
  C19      1.0000 0.26560  0.14290  0.04870  Biso   1.000  C
  H6       1.0000 0.21400  0.14650  0.02940  Biso   1.000  H
  C20      1.0000 0.30300  0.17210  0.96620  Biso   1.000  C
  C21      1.0000 0.38140  0.16640  0.99800  Biso   1.000  C
  H7       1.0000 0.40730  0.18610  0.94630  Biso   1.000  H
  C22      1.0000 0.41990  0.13190  0.10520  Biso   1.000  C
  H8       1.0000 0.47130  0.12770  0.12340  Biso   1.000  H
  C23      1.0000 0.26540  0.20830  0.85420  Biso   1.000  C
  C24      1.0000 0.23700  0.23910  0.75650  Biso   1.000  C
  C25      1.0000 0.20780  0.27640  0.64180  Biso   1.000  C
  C26      1.0000 0.13260  0.28020  0.56100  Biso   1.000  C
  C27      1.0000 0.10400  0.31680  0.45430  Biso   1.000  C
  C28      1.0000 0.15180  0.35060  0.42010  Biso   1.000  C
  C29      1.0000 0.22690  0.34760  0.49610  Biso   1.000  C
  C30      1.0000 0.25380  0.31130  0.60670  Biso   1.000  C
  O3       1.0000 0.39590  0.05208  0.40930  Biso   1.000  O
  O4       1.0000 0.48690  0.05230  0.28790  Biso   1.000  O
  F6       1.0000 0.08590  0.24700  0.58940  Biso   1.000  F
  F7       1.0000 0.03180  0.31900  0.37550  Biso   1.000  F
  F8       1.0000 0.12410  0.38573  0.31380  Biso   1.000  F
  F9       1.0000 0.27340  0.38000  0.46380  Biso   1.000  F
  F10      1.0000 0.32740  0.30870  0.67670  Biso   1.000  F
  C31      1.0000 0.42420  0.93390  0.30430  Biso   1.000  C
  C32      1.0000 0.38170  0.89710  0.18700  Biso   1.000  C
  C33      1.0000 0.30430  0.89120  0.15830  Biso   1.000  C
  H9       1.0000 0.27890  0.91020  0.21270  Biso   1.000  H
  C34      1.0000 0.26560  0.85710  0.04870  Biso   1.000  C
  H10      1.0000 0.21400  0.85350  0.02940  Biso   1.000  H
  C35      1.0000 0.30300  0.82790  0.96620  Biso   1.000  C
  C36      1.0000 0.38140  0.83360  0.99800  Biso   1.000  C
  H11      1.0000 0.40730  0.81390  0.94630  Biso   1.000  H
  C37      1.0000 0.41990  0.86810  0.10520  Biso   1.000  C
  H12      1.0000 0.47130  0.87230  0.12340  Biso   1.000  H
  C38      1.0000 0.26540  0.79170  0.85420  Biso   1.000  C
  C39      1.0000 0.23700  0.76090  0.75650  Biso   1.000  C
  C40      1.0000 0.20780  0.72360  0.64180  Biso   1.000  C
  C41      1.0000 0.13260  0.71980  0.56100  Biso   1.000  C
  C42      1.0000 0.10400  0.68320  0.45430  Biso   1.000  C
  C43      1.0000 0.15180  0.64940  0.42010  Biso   1.000  C
  C44      1.0000 0.22690  0.65240  0.49610  Biso   1.000  C
  C45      1.0000 0.25380  0.68870  0.60670  Biso   1.000  C
  O5       1.0000 0.39590  0.94792  0.40930  Biso   1.000  O
  O6       1.0000 0.48690  0.94770  0.28790  Biso   1.000  O
  F11      1.0000 0.08590  0.75300  0.58940  Biso   1.000  F
  F12      1.0000 0.03180  0.68100  0.37550  Biso   1.000  F
  F13      1.0000 0.12410  0.61427  0.31380  Biso   1.000  F
  F14      1.0000 0.27340  0.62000  0.46380  Biso   1.000  F
  F15      1.0000 0.32740  0.69130  0.67670  Biso   1.000  F
  C46      1.0000 0.57580  0.93390  0.69570  Biso   1.000  C
  C47      1.0000 0.61830  0.89710  0.81300  Biso   1.000  C
  C48      1.0000 0.69570  0.89120  0.84170  Biso   1.000  C
  H13      1.0000 0.72110  0.91020  0.78730  Biso   1.000  H
  C49      1.0000 0.73440  0.85710  0.95130  Biso   1.000  C
  H14      1.0000 0.78600  0.85350  0.97060  Biso   1.000  H
  C50      1.0000 0.69700  0.82790  0.03380  Biso   1.000  C
  C51      1.0000 0.61860  0.83360  0.00200  Biso   1.000  C
  H15      1.0000 0.59270  0.81390  0.05370  Biso   1.000  H
  C52      1.0000 0.58010  0.86810  0.89480  Biso   1.000  C
  H16      1.0000 0.52870  0.87230  0.87660  Biso   1.000  H
  C53      1.0000 0.73460  0.79170  0.14580  Biso   1.000  C
  C54      1.0000 0.76300  0.76090  0.24350  Biso   1.000  C
  C55      1.0000 0.79220  0.72360  0.35820  Biso   1.000  C
  C56      1.0000 0.86740  0.71980  0.43900  Biso   1.000  C
  C57      1.0000 0.89600  0.68320  0.54570  Biso   1.000  C
  C58      1.0000 0.84820  0.64940  0.57990  Biso   1.000  C
  C59      1.0000 0.77310  0.65240  0.50390  Biso   1.000  C
  C60      1.0000 0.74620  0.68870  0.39330  Biso   1.000  C
  O7       1.0000 0.60410  0.94792  0.59070  Biso   1.000  O
  O8       1.0000 0.51310  0.94770  0.71210  Biso   1.000  O
  F16      1.0000 0.91410  0.75300  0.41060  Biso   1.000  F
  F17      1.0000 0.96820  0.68100  0.62450  Biso   1.000  F
  F18      1.0000 0.87590  0.61427  0.68620  Biso   1.000  F
  F19      1.0000 0.72660  0.62000  0.53620  Biso   1.000  F
  F20      1.0000 0.67260  0.69130  0.32330  Biso   1.000  F
  Rh1      1.0000 0.54744  0.00000  0.43492  Biso   1.000  Rh
  Rh2      1.0000 0.45256  0.00000  0.56508  Biso   1.000  Rh
  C61      1.0000 0.07580  0.56610  0.69570  Biso   1.000  C
  C62      1.0000 0.11830  0.60290  0.81300  Biso   1.000  C
  C63      1.0000 0.19570  0.60880  0.84170  Biso   1.000  C
  H17      1.0000 0.22110  0.58980  0.78730  Biso   1.000  H
  C64      1.0000 0.23440  0.64290  0.95130  Biso   1.000  C
  H18      1.0000 0.28600  0.64650  0.97060  Biso   1.000  H
  C65      1.0000 0.19700  0.67210  0.03380  Biso   1.000  C
  C66      1.0000 0.11860  0.66640  0.00200  Biso   1.000  C
  H19      1.0000 0.09270  0.68610  0.05370  Biso   1.000  H
  C67      1.0000 0.08010  0.63190  0.89480  Biso   1.000  C
  H20      1.0000 0.02870  0.62770  0.87660  Biso   1.000  H
  C68      1.0000 0.23460  0.70830  0.14580  Biso   1.000  C
  C69      1.0000 0.26300  0.73910  0.24350  Biso   1.000  C
  C70      1.0000 0.29220  0.77640  0.35820  Biso   1.000  C
  C71      1.0000 0.36740  0.78020  0.43900  Biso   1.000  C
  C72      1.0000 0.39600  0.81680  0.54570  Biso   1.000  C
  C73      1.0000 0.34820  0.85060  0.57990  Biso   1.000  C
  C74      1.0000 0.27310  0.84760  0.50390  Biso   1.000  C
  C75      1.0000 0.24620  0.81130  0.39330  Biso   1.000  C
  O9       1.0000 0.10410  0.55208  0.59070  Biso   1.000  O
  O10      1.0000 0.01310  0.55230  0.71210  Biso   1.000  O
  F21      1.0000 0.41410  0.74700  0.41060  Biso   1.000  F
  F22      1.0000 0.46820  0.81900  0.62450  Biso   1.000  F
  F23      1.0000 0.37590  0.88573  0.68620  Biso   1.000  F
  F24      1.0000 0.22660  0.88000  0.53620  Biso   1.000  F
  F25      1.0000 0.17260  0.80870  0.32330  Biso   1.000  F
  C76      1.0000 0.92420  0.56610  0.30430  Biso   1.000  C
  C77      1.0000 0.88170  0.60290  0.18700  Biso   1.000  C
  C78      1.0000 0.80430  0.60880  0.15830  Biso   1.000  C
  H21      1.0000 0.77890  0.58980  0.21270  Biso   1.000  H
  C79      1.0000 0.76560  0.64290  0.04870  Biso   1.000  C
  H22      1.0000 0.71400  0.64650  0.02940  Biso   1.000  H
  C80      1.0000 0.80300  0.67210  0.96620  Biso   1.000  C
  C81      1.0000 0.88140  0.66640  0.99800  Biso   1.000  C
  H23      1.0000 0.90730  0.68610  0.94630  Biso   1.000  H
  C82      1.0000 0.91990  0.63190  0.10520  Biso   1.000  C
  H24      1.0000 0.97130  0.62770  0.12340  Biso   1.000  H
  C83      1.0000 0.76540  0.70830  0.85420  Biso   1.000  C
  C84      1.0000 0.73700  0.73910  0.75650  Biso   1.000  C
  C85      1.0000 0.70780  0.77640  0.64180  Biso   1.000  C
  C86      1.0000 0.63260  0.78020  0.56100  Biso   1.000  C
  C87      1.0000 0.60400  0.81680  0.45430  Biso   1.000  C
  C88      1.0000 0.65180  0.85060  0.42010  Biso   1.000  C
  C89      1.0000 0.72690  0.84760  0.49610  Biso   1.000  C
  C90      1.0000 0.75380  0.81130  0.60670  Biso   1.000  C
  O11      1.0000 0.89590  0.55208  0.40930  Biso   1.000  O
  O12      1.0000 0.98690  0.55230  0.28790  Biso   1.000  O
  F26      1.0000 0.58590  0.74700  0.58940  Biso   1.000  F
  F27      1.0000 0.53180  0.81900  0.37550  Biso   1.000  F
  F28      1.0000 0.62410  0.88573  0.31380  Biso   1.000  F
  F29      1.0000 0.77340  0.88000  0.46380  Biso   1.000  F
  F30      1.0000 0.82740  0.80870  0.67670  Biso   1.000  F
  C91      1.0000 0.92420  0.43390  0.30430  Biso   1.000  C
  C92      1.0000 0.88170  0.39710  0.18700  Biso   1.000  C
  C93      1.0000 0.80430  0.39120  0.15830  Biso   1.000  C
  H25      1.0000 0.77890  0.41020  0.21270  Biso   1.000  H
  C94      1.0000 0.76560  0.35710  0.04870  Biso   1.000  C
  H26      1.0000 0.71400  0.35350  0.02940  Biso   1.000  H
  C95      1.0000 0.80300  0.32790  0.96620  Biso   1.000  C
  C96      1.0000 0.88140  0.33360  0.99800  Biso   1.000  C
  H27      1.0000 0.90730  0.31390  0.94630  Biso   1.000  H
  C97      1.0000 0.91990  0.36810  0.10520  Biso   1.000  C
  H28      1.0000 0.97130  0.37230  0.12340  Biso   1.000  H
  C98      1.0000 0.76540  0.29170  0.85420  Biso   1.000  C
  C99      1.0000 0.73700  0.26090  0.75650  Biso   1.000  C
  C100     1.0000 0.70780  0.22360  0.64180  Biso   1.000  C
  C101     1.0000 0.63260  0.21980  0.56100  Biso   1.000  C
  C102     1.0000 0.60400  0.18320  0.45430  Biso   1.000  C
  C103     1.0000 0.65180  0.14940  0.42010  Biso   1.000  C
  C104     1.0000 0.72690  0.15240  0.49610  Biso   1.000  C
  C105     1.0000 0.75380  0.18870  0.60670  Biso   1.000  C
  O13      1.0000 0.89590  0.44792  0.40930  Biso   1.000  O
  O14      1.0000 0.98690  0.44770  0.28790  Biso   1.000  O
  F31      1.0000 0.58590  0.25300  0.58940  Biso   1.000  F
  F32      1.0000 0.53180  0.18100  0.37550  Biso   1.000  F
  F33      1.0000 0.62410  0.11427  0.31380  Biso   1.000  F
  F34      1.0000 0.77340  0.12000  0.46380  Biso   1.000  F
  F35      1.0000 0.82740  0.19130  0.67670  Biso   1.000  F
  C106     1.0000 0.07580  0.43390  0.69570  Biso   1.000  C
  C107     1.0000 0.11830  0.39710  0.81300  Biso   1.000  C
  C108     1.0000 0.19570  0.39120  0.84170  Biso   1.000  C
  H29      1.0000 0.22110  0.41020  0.78730  Biso   1.000  H
  C109     1.0000 0.23440  0.35710  0.95130  Biso   1.000  C
  H30      1.0000 0.28600  0.35350  0.97060  Biso   1.000  H
  C110     1.0000 0.19700  0.32790  0.03380  Biso   1.000  C
  C111     1.0000 0.11860  0.33360  0.00200  Biso   1.000  C
  H31      1.0000 0.09270  0.31390  0.05370  Biso   1.000  H
  C112     1.0000 0.08010  0.36810  0.89480  Biso   1.000  C
  H32      1.0000 0.02870  0.37230  0.87660  Biso   1.000  H
  C113     1.0000 0.23460  0.29170  0.14580  Biso   1.000  C
  C114     1.0000 0.26300  0.26090  0.24350  Biso   1.000  C
  C115     1.0000 0.29220  0.22360  0.35820  Biso   1.000  C
  C116     1.0000 0.36740  0.21980  0.43900  Biso   1.000  C
  C117     1.0000 0.39600  0.18320  0.54570  Biso   1.000  C
  C118     1.0000 0.34820  0.14940  0.57990  Biso   1.000  C
  C119     1.0000 0.27310  0.15240  0.50390  Biso   1.000  C
  C120     1.0000 0.24620  0.18870  0.39330  Biso   1.000  C
  O15      1.0000 0.10410  0.44792  0.59070  Biso   1.000  O
  O16      1.0000 0.01310  0.44770  0.71210  Biso   1.000  O
  F36      1.0000 0.41410  0.25300  0.41060  Biso   1.000  F
  F37      1.0000 0.46820  0.18100  0.62450  Biso   1.000  F
  F38      1.0000 0.37590  0.11427  0.68620  Biso   1.000  F
  F39      1.0000 0.22660  0.12000  0.53620  Biso   1.000  F
  F40      1.0000 0.17260  0.19130  0.32330  Biso   1.000  F
  Rh3      1.0000 0.04744  0.50000  0.43492  Biso   1.000  Rh
  Rh4      1.0000 0.95256  0.50000  0.56508  Biso   1.000  Rh
