data_image0
_cell_length_a       9.1198
_cell_length_b       9.6075
_cell_length_c       14.3241
_cell_angle_alpha    94.951
_cell_angle_beta     98.05
_cell_angle_gamma    92.029

_symmetry_space_group_name_H-M    "P 1"
_symmetry_int_tables_number       1

loop_
  _symmetry_equiv_pos_as_xyz
  'x, y, z'

loop_
  _atom_site_label
  _atom_site_occupancy
  _atom_site_fract_x
  _atom_site_fract_y
  _atom_site_fract_z
  _atom_site_thermal_displace_type
  _atom_site_B_iso_or_equiv
  _atom_site_type_symbol
  Fe1      1.0000 0.98961  0.51642  0.17686  Biso   1.000  Fe
  S1       1.0000 0.20734  0.65387  0.03062  Biso   1.000  S
  O1       1.0000 0.90821  0.39076  0.04813  Biso   1.000  O
  O2       1.0000 0.24975  0.80134  0.03392  Biso   1.000  O
  O3       1.0000 0.17018  0.61332  0.12102  Biso   1.000  O
  C1       1.0000 0.37011  0.56436  0.01321  Biso   1.000  C
  C2       1.0000 0.43728  0.58739  0.93388  Biso   1.000  C
  H1       1.0000 0.39420  0.64710  0.88920  Biso   1.000  H
  C3       1.0000 0.43219  0.47757  0.07952  Biso   1.000  C
  H2       1.0000 0.38590  0.46280  0.13350  Biso   1.000  H
  S2       1.0000 0.76549  0.37521  0.32711  Biso   1.000  S
  O4       1.0000 0.82174  0.42139  0.24324  Biso   1.000  O
  O5       1.0000 0.76513  0.22428  0.32788  Biso   1.000  O
  O6       1.0000 0.62617  0.43579  0.34084  Biso   1.000  O
  C4       1.0000 0.89630  0.44434  0.42498  Biso   1.000  C
  C5       1.0000 0.85967  0.55423  0.48573  Biso   1.000  C
  H3       1.0000 0.76390  0.59090  0.47580  Biso   1.000  H
  C6       1.0000 0.03612  0.38978  0.43881  Biso   1.000  C
  H4       1.0000 0.06040  0.31470  0.39700  Biso   1.000  H
  Fe2      1.0000 0.01039  0.48358  0.82314  Biso   1.000  Fe
  S3       1.0000 0.79266  0.34613  0.96938  Biso   1.000  S
  O7       1.0000 0.09179  0.60924  0.95187  Biso   1.000  O
  O8       1.0000 0.75025  0.19866  0.96608  Biso   1.000  O
  O9       1.0000 0.82982  0.38668  0.87898  Biso   1.000  O
  C7       1.0000 0.62989  0.43564  0.98679  Biso   1.000  C
  C8       1.0000 0.56272  0.41261  0.06612  Biso   1.000  C
  H5       1.0000 0.60580  0.35290  0.11080  Biso   1.000  H
  C9       1.0000 0.56781  0.52243  0.92048  Biso   1.000  C
  H6       1.0000 0.61410  0.53720  0.86650  Biso   1.000  H
  S4       1.0000 0.23451  0.62479  0.67289  Biso   1.000  S
  O10      1.0000 0.17826  0.57861  0.75676  Biso   1.000  O
  O11      1.0000 0.23487  0.77572  0.67212  Biso   1.000  O
  O12      1.0000 0.37383  0.56421  0.65916  Biso   1.000  O
  C10      1.0000 0.10370  0.55566  0.57502  Biso   1.000  C
  C11      1.0000 0.14033  0.44577  0.51427  Biso   1.000  C
  H7       1.0000 0.23610  0.40910  0.52420  Biso   1.000  H
  C12      1.0000 0.96388  0.61022  0.56119  Biso   1.000  C
  H8       1.0000 0.93960  0.68530  0.60300  Biso   1.000  H
