data_image0
_cell_length_a       10.304
_cell_length_b       12.582
_cell_length_c       17.04
_cell_angle_alpha    90
_cell_angle_beta     98.6
_cell_angle_gamma    90

_symmetry_space_group_name_H-M    "P 1"
_symmetry_int_tables_number       1

loop_
  _symmetry_equiv_pos_as_xyz
  'x, y, z'

loop_
  _atom_site_label
  _atom_site_occupancy
  _atom_site_fract_x
  _atom_site_fract_y
  _atom_site_fract_z
  _atom_site_thermal_displace_type
  _atom_site_B_iso_or_equiv
  _atom_site_type_symbol
  Zn1      1.0000 0.88337  0.87255  0.47348  Biso   1.000  Zn
  O1       1.0000 0.87180  0.49454  0.91243  Biso   1.000  O
  O2       1.0000 0.05270  0.39670  0.91231  Biso   1.000  O
  O3       1.0000 0.14230  0.22380  0.66577  Biso   1.000  O
  O4       1.0000 0.99010  0.23060  0.55948  Biso   1.000  O
  N1       1.0000 0.70110  0.82150  0.48271  Biso   1.000  N
  N2       1.0000 0.54080  0.72140  0.51690  Biso   1.000  N
  H1       1.0000 0.50240  0.67040  0.53790  Biso   1.000  H
  S1       1.0000 0.79362  0.65431  0.57199  Biso   1.000  S
  C1       1.0000 0.67190  0.73560  0.52140  Biso   1.000  C
  C2       1.0000 0.58040  0.86580  0.45050  Biso   1.000  C
  C3       1.0000 0.55160  0.95760  0.40520  Biso   1.000  C
  H2       1.0000 0.61720  0.00030  0.39000  Biso   1.000  H
  C4       1.0000 0.41820  0.98170  0.38400  Biso   1.000  C
  H3       1.0000 0.39510  0.04210  0.35360  Biso   1.000  H
  C5       1.0000 0.32010  0.91950  0.40630  Biso   1.000  C
  H4       1.0000 0.23310  0.93940  0.39100  Biso   1.000  H
  C6       1.0000 0.34750  0.82940  0.45030  Biso   1.000  C
  H5       1.0000 0.28120  0.78700  0.46500  Biso   1.000  H
  C7       1.0000 0.48000  0.80410  0.47220  Biso   1.000  C
  C8       1.0000 0.70030  0.55170  0.61385  Biso   1.000  C
  H6       1.0000 0.64170  0.58330  0.64690  Biso   1.000  H
  H7       1.0000 0.64830  0.51140  0.57190  Biso   1.000  H
  C9       1.0000 0.79860  0.48070  0.66267  Biso   1.000  C
  C10      1.0000 0.82610  0.49220  0.74457  Biso   1.000  C
  H8       1.0000 0.78110  0.54280  0.76980  Biso   1.000  H
  C11      1.0000 0.92060  0.42870  0.78939  Biso   1.000  C
  C12      1.0000 0.98980  0.35430  0.75138  Biso   1.000  C
  H9       1.0000 0.05530  0.31380  0.78080  Biso   1.000  H
  C13      1.0000 0.96150  0.34030  0.66941  Biso   1.000  C
  C14      1.0000 0.86560  0.40310  0.62562  Biso   1.000  C
  H10      1.0000 0.84580  0.39340  0.57100  Biso   1.000  H
  C15      1.0000 0.03710  0.25890  0.62978  Biso   1.000  C
  C16      1.0000 0.95050  0.44190  0.87835  Biso   1.000  C
  Zn2      1.0000 0.11663  0.37255  0.02652  Biso   1.000  Zn
  O5       1.0000 0.12820  0.99454  0.58757  Biso   1.000  O
  O6       1.0000 0.94730  0.89670  0.58769  Biso   1.000  O
  O7       1.0000 0.85770  0.72380  0.83423  Biso   1.000  O
  O8       1.0000 0.00990  0.73060  0.94052  Biso   1.000  O
  N3       1.0000 0.29890  0.32150  0.01729  Biso   1.000  N
  N4       1.0000 0.45920  0.22140  0.98310  Biso   1.000  N
  H11      1.0000 0.49760  0.17040  0.96210  Biso   1.000  H
  S2       1.0000 0.20638  0.15431  0.92801  Biso   1.000  S
  C17      1.0000 0.32810  0.23560  0.97860  Biso   1.000  C
  C18      1.0000 0.41960  0.36580  0.04950  Biso   1.000  C
  C19      1.0000 0.44840  0.45760  0.09480  Biso   1.000  C
  H12      1.0000 0.38280  0.50030  0.11000  Biso   1.000  H
  C20      1.0000 0.58180  0.48170  0.11600  Biso   1.000  C
  H13      1.0000 0.60490  0.54210  0.14640  Biso   1.000  H
  C21      1.0000 0.67990  0.41950  0.09370  Biso   1.000  C
  H14      1.0000 0.76690  0.43940  0.10900  Biso   1.000  H
  C22      1.0000 0.65250  0.32940  0.04970  Biso   1.000  C
  H15      1.0000 0.71880  0.28700  0.03500  Biso   1.000  H
  C23      1.0000 0.52000  0.30410  0.02780  Biso   1.000  C
  C24      1.0000 0.29970  0.05170  0.88615  Biso   1.000  C
  H16      1.0000 0.35830  0.08330  0.85310  Biso   1.000  H
  H17      1.0000 0.35170  0.01140  0.92810  Biso   1.000  H
  C25      1.0000 0.20140  0.98070  0.83733  Biso   1.000  C
  C26      1.0000 0.17390  0.99220  0.75543  Biso   1.000  C
  H18      1.0000 0.21890  0.04280  0.73020  Biso   1.000  H
  C27      1.0000 0.07940  0.92870  0.71061  Biso   1.000  C
  C28      1.0000 0.01020  0.85430  0.74862  Biso   1.000  C
  H19      1.0000 0.94470  0.81380  0.71920  Biso   1.000  H
  C29      1.0000 0.03850  0.84030  0.83059  Biso   1.000  C
  C30      1.0000 0.13440  0.90310  0.87438  Biso   1.000  C
  H20      1.0000 0.15420  0.89340  0.92900  Biso   1.000  H
  C31      1.0000 0.96290  0.75890  0.87022  Biso   1.000  C
  C32      1.0000 0.04950  0.94190  0.62165  Biso   1.000  C
  Zn3      1.0000 0.11663  0.12745  0.52652  Biso   1.000  Zn
  O9       1.0000 0.12820  0.50546  0.08757  Biso   1.000  O
  O10      1.0000 0.94730  0.60330  0.08769  Biso   1.000  O
  O11      1.0000 0.85770  0.77620  0.33423  Biso   1.000  O
  O12      1.0000 0.00990  0.76940  0.44052  Biso   1.000  O
  N5       1.0000 0.29890  0.17850  0.51729  Biso   1.000  N
  N6       1.0000 0.45920  0.27860  0.48310  Biso   1.000  N
  H21      1.0000 0.49760  0.32960  0.46210  Biso   1.000  H
  S3       1.0000 0.20638  0.34569  0.42801  Biso   1.000  S
  C33      1.0000 0.32810  0.26440  0.47860  Biso   1.000  C
  C34      1.0000 0.41960  0.13420  0.54950  Biso   1.000  C
  C35      1.0000 0.44840  0.04240  0.59480  Biso   1.000  C
  H22      1.0000 0.38280  0.99970  0.61000  Biso   1.000  H
  C36      1.0000 0.58180  0.01830  0.61600  Biso   1.000  C
  H23      1.0000 0.60490  0.95790  0.64640  Biso   1.000  H
  C37      1.0000 0.67990  0.08050  0.59370  Biso   1.000  C
  H24      1.0000 0.76690  0.06060  0.60900  Biso   1.000  H
  C38      1.0000 0.65250  0.17060  0.54970  Biso   1.000  C
  H25      1.0000 0.71880  0.21300  0.53500  Biso   1.000  H
  C39      1.0000 0.52000  0.19590  0.52780  Biso   1.000  C
  C40      1.0000 0.29970  0.44830  0.38615  Biso   1.000  C
  H26      1.0000 0.35830  0.41670  0.35310  Biso   1.000  H
  H27      1.0000 0.35170  0.48860  0.42810  Biso   1.000  H
  C41      1.0000 0.20140  0.51930  0.33733  Biso   1.000  C
  C42      1.0000 0.17390  0.50780  0.25543  Biso   1.000  C
  H28      1.0000 0.21890  0.45720  0.23020  Biso   1.000  H
  C43      1.0000 0.07940  0.57130  0.21061  Biso   1.000  C
  C44      1.0000 0.01020  0.64570  0.24862  Biso   1.000  C
  H29      1.0000 0.94470  0.68620  0.21920  Biso   1.000  H
  C45      1.0000 0.03850  0.65970  0.33059  Biso   1.000  C
  C46      1.0000 0.13440  0.59690  0.37438  Biso   1.000  C
  H30      1.0000 0.15420  0.60660  0.42900  Biso   1.000  H
  C47      1.0000 0.96290  0.74110  0.37022  Biso   1.000  C
  C48      1.0000 0.04950  0.55810  0.12165  Biso   1.000  C
  Zn4      1.0000 0.88337  0.62745  0.97348  Biso   1.000  Zn
  O13      1.0000 0.87180  0.00546  0.41243  Biso   1.000  O
  O14      1.0000 0.05270  0.10330  0.41231  Biso   1.000  O
  O15      1.0000 0.14230  0.27620  0.16577  Biso   1.000  O
  O16      1.0000 0.99010  0.26940  0.05948  Biso   1.000  O
  N7       1.0000 0.70110  0.67850  0.98271  Biso   1.000  N
  N8       1.0000 0.54080  0.77860  0.01690  Biso   1.000  N
  H31      1.0000 0.50240  0.82960  0.03790  Biso   1.000  H
  S4       1.0000 0.79362  0.84569  0.07199  Biso   1.000  S
  C49      1.0000 0.67190  0.76440  0.02140  Biso   1.000  C
  C50      1.0000 0.58040  0.63420  0.95050  Biso   1.000  C
  C51      1.0000 0.55160  0.54240  0.90520  Biso   1.000  C
  H32      1.0000 0.61720  0.49970  0.89000  Biso   1.000  H
  C52      1.0000 0.41820  0.51830  0.88400  Biso   1.000  C
  H33      1.0000 0.39510  0.45790  0.85360  Biso   1.000  H
  C53      1.0000 0.32010  0.58050  0.90630  Biso   1.000  C
  H34      1.0000 0.23310  0.56060  0.89100  Biso   1.000  H
  C54      1.0000 0.34750  0.67060  0.95030  Biso   1.000  C
  H35      1.0000 0.28120  0.71300  0.96500  Biso   1.000  H
  C55      1.0000 0.48000  0.69590  0.97220  Biso   1.000  C
  C56      1.0000 0.70030  0.94830  0.11385  Biso   1.000  C
  H36      1.0000 0.64170  0.91670  0.14690  Biso   1.000  H
  H37      1.0000 0.64830  0.98860  0.07190  Biso   1.000  H
  C57      1.0000 0.79860  0.01930  0.16267  Biso   1.000  C
  C58      1.0000 0.82610  0.00780  0.24457  Biso   1.000  C
  H38      1.0000 0.78110  0.95720  0.26980  Biso   1.000  H
  C59      1.0000 0.92060  0.07130  0.28939  Biso   1.000  C
  C60      1.0000 0.98980  0.14570  0.25138  Biso   1.000  C
  H39      1.0000 0.05530  0.18620  0.28080  Biso   1.000  H
  C61      1.0000 0.96150  0.15970  0.16941  Biso   1.000  C
  C62      1.0000 0.86560  0.09690  0.12562  Biso   1.000  C
  H40      1.0000 0.84580  0.10660  0.07100  Biso   1.000  H
  C63      1.0000 0.03710  0.24110  0.12978  Biso   1.000  C
  C64      1.0000 0.95050  0.05810  0.37835  Biso   1.000  C
