data_image0
_cell_length_a       6.7527
_cell_length_b       12.1817
_cell_length_c       13.4598
_cell_angle_alpha    70.658
_cell_angle_beta     76.203
_cell_angle_gamma    86.532

_symmetry_space_group_name_H-M    "P 1"
_symmetry_int_tables_number       1

loop_
  _symmetry_equiv_pos_as_xyz
  'x, y, z'

loop_
  _atom_site_label
  _atom_site_occupancy
  _atom_site_fract_x
  _atom_site_fract_y
  _atom_site_fract_z
  _atom_site_thermal_displace_type
  _atom_site_B_iso_or_equiv
  _atom_site_type_symbol
  V1       1.0000 0.16822  0.24384  0.37168  Biso   1.000  V
  C1       1.0000 0.79582  0.12587  0.50407  Biso   1.000  C
  C2       1.0000 0.96180  0.40800  0.20357  Biso   1.000  C
  C3       1.0000 0.85071  0.08110  0.41041  Biso   1.000  C
  C4       1.0000 0.16529  0.37836  0.14689  Biso   1.000  C
  C5       1.0000 0.04641  0.05556  0.26670  Biso   1.000  C
  C6       1.0000 0.46687  0.30488  0.13060  Biso   1.000  C
  C7       1.0000 0.20490  0.05148  0.17922  Biso   1.000  C
  H1       1.0000 0.32850  0.09070  0.16310  Biso   1.000  H
  C8       1.0000 0.64786  0.24718  0.14565  Biso   1.000  C
  H2       1.0000 0.67060  0.21080  0.21440  Biso   1.000  H
  C9       1.0000 0.16930  0.98650  0.11793  Biso   1.000  C
  H3       1.0000 0.27130  0.98220  0.05920  Biso   1.000  H
  C10      1.0000 0.79210  0.24653  0.05337  Biso   1.000  C
  H4       1.0000 0.91390  0.20840  0.06060  Biso   1.000  H
  C11      1.0000 0.98240  0.92670  0.14218  Biso   1.000  C
  H5       1.0000 0.96360  0.88510  0.09820  Biso   1.000  H
  C12      1.0000 0.75930  0.30208  0.94874  Biso   1.000  C
  H6       1.0000 0.86050  0.30000  0.88890  Biso   1.000  H
  C13      1.0000 0.82630  0.92806  0.22948  Biso   1.000  C
  H7       1.0000 0.70350  0.88800  0.24580  Biso   1.000  H
  C14      1.0000 0.58090  0.35955  0.93274  Biso   1.000  C
  H8       1.0000 0.55920  0.39620  0.86380  Biso   1.000  H
  C15      1.0000 0.86289  0.99283  0.29164  Biso   1.000  C
  C16      1.0000 0.43475  0.35953  0.02601  Biso   1.000  C
  N1       1.0000 0.03310  0.11153  0.34266  Biso   1.000  N
  N2       1.0000 0.29276  0.31783  0.20528  Biso   1.000  N
  N3       1.0000 0.74329  0.01137  0.38310  Biso   1.000  N
  H9       1.0000 0.62250  0.98340  0.41630  Biso   1.000  H
  N4       1.0000 0.24201  0.40555  0.03982  Biso   1.000  N
  H10      1.0000 0.18250  0.44430  0.98940  Biso   1.000  H
  O1       1.0000 0.93671  0.19198  0.50483  Biso   1.000  O
  O2       1.0000 0.92480  0.35748  0.30542  Biso   1.000  O
  O3       1.0000 0.63246  0.09947  0.57199  Biso   1.000  O
  O4       1.0000 0.85026  0.47674  0.15183  Biso   1.000  O
  V2       1.0000 0.83178  0.75616  0.62832  Biso   1.000  V
  C17      1.0000 0.20418  0.87413  0.49593  Biso   1.000  C
  C18      1.0000 0.03820  0.59200  0.79643  Biso   1.000  C
  C19      1.0000 0.14929  0.91890  0.58959  Biso   1.000  C
  C20      1.0000 0.83471  0.62164  0.85311  Biso   1.000  C
  C21      1.0000 0.95359  0.94444  0.73330  Biso   1.000  C
  C22      1.0000 0.53313  0.69512  0.86940  Biso   1.000  C
  C23      1.0000 0.79510  0.94852  0.82078  Biso   1.000  C
  H11      1.0000 0.67150  0.90930  0.83690  Biso   1.000  H
  C24      1.0000 0.35214  0.75282  0.85435  Biso   1.000  C
  H12      1.0000 0.32940  0.78920  0.78560  Biso   1.000  H
  C25      1.0000 0.83070  0.01350  0.88207  Biso   1.000  C
  H13      1.0000 0.72870  0.01780  0.94080  Biso   1.000  H
  C26      1.0000 0.20790  0.75347  0.94663  Biso   1.000  C
  H14      1.0000 0.08610  0.79160  0.93940  Biso   1.000  H
  C27      1.0000 0.01760  0.07330  0.85782  Biso   1.000  C
  H15      1.0000 0.03640  0.11490  0.90180  Biso   1.000  H
  C28      1.0000 0.24070  0.69792  0.05126  Biso   1.000  C
  H16      1.0000 0.13950  0.70000  0.11110  Biso   1.000  H
  C29      1.0000 0.17370  0.07194  0.77052  Biso   1.000  C
  H17      1.0000 0.29650  0.11200  0.75420  Biso   1.000  H
  C30      1.0000 0.41910  0.64045  0.06726  Biso   1.000  C
  H18      1.0000 0.44080  0.60380  0.13620  Biso   1.000  H
  C31      1.0000 0.13711  0.00717  0.70836  Biso   1.000  C
  C32      1.0000 0.56525  0.64047  0.97399  Biso   1.000  C
  N5       1.0000 0.96690  0.88847  0.65734  Biso   1.000  N
  N6       1.0000 0.70724  0.68217  0.79472  Biso   1.000  N
  N7       1.0000 0.25671  0.98863  0.61690  Biso   1.000  N
  H19      1.0000 0.37750  0.01660  0.58370  Biso   1.000  H
  N8       1.0000 0.75799  0.59445  0.96018  Biso   1.000  N
  H20      1.0000 0.81750  0.55570  0.01060  Biso   1.000  H
  O5       1.0000 0.06329  0.80802  0.49517  Biso   1.000  O
  O6       1.0000 0.07520  0.64252  0.69458  Biso   1.000  O
  O7       1.0000 0.36754  0.90053  0.42801  Biso   1.000  O
  O8       1.0000 0.14974  0.52326  0.84817  Biso   1.000  O
