data_image0
_cell_length_a       8.9739
_cell_length_b       8.5841
_cell_length_c       30.686
_cell_angle_alpha    90
_cell_angle_beta     90
_cell_angle_gamma    90

_symmetry_space_group_name_H-M    "P 1"
_symmetry_int_tables_number       1

loop_
  _symmetry_equiv_pos_as_xyz
  'x, y, z'

loop_
  _atom_site_label
  _atom_site_occupancy
  _atom_site_fract_x
  _atom_site_fract_y
  _atom_site_fract_z
  _atom_site_thermal_displace_type
  _atom_site_B_iso_or_equiv
  _atom_site_type_symbol
  C1       1.0000 0.41680  0.44160  0.61490  Biso   1.000  C
  H1       1.0000 0.48630  0.36430  0.62110  Biso   1.000  H
  C2       1.0000 0.41030  0.57250  0.64040  Biso   1.000  C
  C3       1.0000 0.51430  0.59130  0.67850  Biso   1.000  C
  C4       1.0000 0.30590  0.68640  0.63080  Biso   1.000  C
  H2       1.0000 0.30080  0.77660  0.64760  Biso   1.000  H
  C5       1.0000 0.20830  0.66500  0.59590  Biso   1.000  C
  H3       1.0000 0.13720  0.74110  0.59010  Biso   1.000  H
  C6       1.0000 0.21360  0.53540  0.56980  Biso   1.000  C
  C7       1.0000 0.32020  0.42360  0.57980  Biso   1.000  C
  H4       1.0000 0.32720  0.33470  0.56260  Biso   1.000  H
  C8       1.0000 0.10850  0.51670  0.53270  Biso   1.000  C
  C9       1.0000 0.15400  0.51190  0.48970  Biso   1.000  C
  C10      1.0000 0.95430  0.50520  0.54250  Biso   1.000  C
  H5       1.0000 0.92440  0.50930  0.57140  Biso   1.000  H
  C11      1.0000 0.31570  0.52770  0.47630  Biso   1.000  C
  H6       1.0000 0.36640  0.43090  0.48140  Biso   1.000  H
  H7       1.0000 0.36190  0.60860  0.49310  Biso   1.000  H
  H8       1.0000 0.32120  0.55360  0.44590  Biso   1.000  H
  O1       1.0000 0.49800  0.71190  0.70199  Biso   1.000  O
  O2       1.0000 0.61470  0.49380  0.68560  Biso   1.000  O
  C12      1.0000 0.58320  0.55840  0.11490  Biso   1.000  C
  H9       1.0000 0.51370  0.63570  0.12110  Biso   1.000  H
  C13      1.0000 0.58970  0.42750  0.14040  Biso   1.000  C
  C14      1.0000 0.48570  0.40870  0.17850  Biso   1.000  C
  C15      1.0000 0.69410  0.31360  0.13080  Biso   1.000  C
  H10      1.0000 0.69920  0.22340  0.14760  Biso   1.000  H
  C16      1.0000 0.79170  0.33500  0.09590  Biso   1.000  C
  H11      1.0000 0.86280  0.25890  0.09010  Biso   1.000  H
  C17      1.0000 0.78640  0.46460  0.06980  Biso   1.000  C
  C18      1.0000 0.67980  0.57640  0.07980  Biso   1.000  C
  H12      1.0000 0.67280  0.66530  0.06260  Biso   1.000  H
  C19      1.0000 0.89150  0.48330  0.03270  Biso   1.000  C
  C20      1.0000 0.84600  0.48810  0.98970  Biso   1.000  C
  C21      1.0000 0.04570  0.49480  0.04250  Biso   1.000  C
  H13      1.0000 0.07560  0.49070  0.07140  Biso   1.000  H
  C22      1.0000 0.68430  0.47230  0.97630  Biso   1.000  C
  H14      1.0000 0.63360  0.56910  0.98140  Biso   1.000  H
  H15      1.0000 0.63810  0.39140  0.99310  Biso   1.000  H
  H16      1.0000 0.67880  0.44640  0.94590  Biso   1.000  H
  O3       1.0000 0.50200  0.28810  0.20199  Biso   1.000  O
  O4       1.0000 0.38530  0.50620  0.18560  Biso   1.000  O
  C23      1.0000 0.58320  0.55840  0.38510  Biso   1.000  C
  H17      1.0000 0.51370  0.63570  0.37890  Biso   1.000  H
  C24      1.0000 0.58970  0.42750  0.35960  Biso   1.000  C
  C25      1.0000 0.48570  0.40870  0.32150  Biso   1.000  C
  C26      1.0000 0.69410  0.31360  0.36920  Biso   1.000  C
  H18      1.0000 0.69920  0.22340  0.35240  Biso   1.000  H
  C27      1.0000 0.79170  0.33500  0.40410  Biso   1.000  C
  H19      1.0000 0.86280  0.25890  0.40990  Biso   1.000  H
  C28      1.0000 0.78640  0.46460  0.43020  Biso   1.000  C
  C29      1.0000 0.67980  0.57640  0.42020  Biso   1.000  C
  H20      1.0000 0.67280  0.66530  0.43740  Biso   1.000  H
  C30      1.0000 0.89150  0.48330  0.46730  Biso   1.000  C
  C31      1.0000 0.84600  0.48810  0.51030  Biso   1.000  C
  C32      1.0000 0.04570  0.49480  0.45750  Biso   1.000  C
  H21      1.0000 0.07560  0.49070  0.42860  Biso   1.000  H
  C33      1.0000 0.68430  0.47230  0.52370  Biso   1.000  C
  H22      1.0000 0.63360  0.56910  0.51860  Biso   1.000  H
  H23      1.0000 0.63810  0.39140  0.50690  Biso   1.000  H
  H24      1.0000 0.67880  0.44640  0.55410  Biso   1.000  H
  O5       1.0000 0.50200  0.28810  0.29801  Biso   1.000  O
  O6       1.0000 0.38530  0.50620  0.31440  Biso   1.000  O
  C34      1.0000 0.41680  0.44160  0.88510  Biso   1.000  C
  H25      1.0000 0.48630  0.36430  0.87890  Biso   1.000  H
  C35      1.0000 0.41030  0.57250  0.85960  Biso   1.000  C
  C36      1.0000 0.51430  0.59130  0.82150  Biso   1.000  C
  C37      1.0000 0.30590  0.68640  0.86920  Biso   1.000  C
  H26      1.0000 0.30080  0.77660  0.85240  Biso   1.000  H
  C38      1.0000 0.20830  0.66500  0.90410  Biso   1.000  C
  H27      1.0000 0.13720  0.74110  0.90990  Biso   1.000  H
  C39      1.0000 0.21360  0.53540  0.93020  Biso   1.000  C
  C40      1.0000 0.32020  0.42360  0.92020  Biso   1.000  C
  H28      1.0000 0.32720  0.33470  0.93740  Biso   1.000  H
  C41      1.0000 0.10850  0.51670  0.96730  Biso   1.000  C
  C42      1.0000 0.15400  0.51190  0.01030  Biso   1.000  C
  C43      1.0000 0.95430  0.50520  0.95750  Biso   1.000  C
  H29      1.0000 0.92440  0.50930  0.92860  Biso   1.000  H
  C44      1.0000 0.31570  0.52770  0.02370  Biso   1.000  C
  H30      1.0000 0.36640  0.43090  0.01860  Biso   1.000  H
  H31      1.0000 0.36190  0.60860  0.00690  Biso   1.000  H
  H32      1.0000 0.32120  0.55360  0.05410  Biso   1.000  H
  O7       1.0000 0.49800  0.71190  0.79801  Biso   1.000  O
  O8       1.0000 0.61470  0.49380  0.81440  Biso   1.000  O
  Pb1      1.0000 0.70349  0.68859  0.75000  Biso   1.000  Pb
  Pb2      1.0000 0.29651  0.31141  0.25000  Biso   1.000  Pb
  C45      1.0000 0.08320  0.94160  0.38510  Biso   1.000  C
  H33      1.0000 0.01370  0.86430  0.37890  Biso   1.000  H
  C46      1.0000 0.08970  0.07250  0.35960  Biso   1.000  C
  C47      1.0000 0.98570  0.09130  0.32150  Biso   1.000  C
  C48      1.0000 0.19410  0.18640  0.36920  Biso   1.000  C
  H34      1.0000 0.19920  0.27660  0.35240  Biso   1.000  H
  C49      1.0000 0.29170  0.16500  0.40410  Biso   1.000  C
  H35      1.0000 0.36280  0.24110  0.40990  Biso   1.000  H
  C50      1.0000 0.28640  0.03540  0.43020  Biso   1.000  C
  C51      1.0000 0.17980  0.92360  0.42020  Biso   1.000  C
  H36      1.0000 0.17280  0.83470  0.43740  Biso   1.000  H
  C52      1.0000 0.39150  0.01670  0.46730  Biso   1.000  C
  C53      1.0000 0.34600  0.01190  0.51030  Biso   1.000  C
  C54      1.0000 0.54570  0.00520  0.45750  Biso   1.000  C
  H37      1.0000 0.57560  0.00930  0.42860  Biso   1.000  H
  C55      1.0000 0.18430  0.02770  0.52370  Biso   1.000  C
  H38      1.0000 0.13360  0.93090  0.51860  Biso   1.000  H
  H39      1.0000 0.13810  0.10860  0.50690  Biso   1.000  H
  H40      1.0000 0.17880  0.05360  0.55410  Biso   1.000  H
  O9       1.0000 0.00200  0.21190  0.29801  Biso   1.000  O
  O10      1.0000 0.88530  0.99380  0.31440  Biso   1.000  O
  C56      1.0000 0.91680  0.05840  0.88510  Biso   1.000  C
  H41      1.0000 0.98630  0.13570  0.87890  Biso   1.000  H
  C57      1.0000 0.91030  0.92750  0.85960  Biso   1.000  C
  C58      1.0000 0.01430  0.90870  0.82150  Biso   1.000  C
  C59      1.0000 0.80590  0.81360  0.86920  Biso   1.000  C
  H42      1.0000 0.80080  0.72340  0.85240  Biso   1.000  H
  C60      1.0000 0.70830  0.83500  0.90410  Biso   1.000  C
  H43      1.0000 0.63720  0.75890  0.90990  Biso   1.000  H
  C61      1.0000 0.71360  0.96460  0.93020  Biso   1.000  C
  C62      1.0000 0.82020  0.07640  0.92020  Biso   1.000  C
  H44      1.0000 0.82720  0.16530  0.93740  Biso   1.000  H
  C63      1.0000 0.60850  0.98330  0.96730  Biso   1.000  C
  C64      1.0000 0.65400  0.98810  0.01030  Biso   1.000  C
  C65      1.0000 0.45430  0.99480  0.95750  Biso   1.000  C
  H45      1.0000 0.42440  0.99070  0.92860  Biso   1.000  H
  C66      1.0000 0.81570  0.97230  0.02370  Biso   1.000  C
  H46      1.0000 0.86640  0.06910  0.01860  Biso   1.000  H
  H47      1.0000 0.86190  0.89140  0.00690  Biso   1.000  H
  H48      1.0000 0.82120  0.94640  0.05410  Biso   1.000  H
  O11      1.0000 0.99800  0.78810  0.79801  Biso   1.000  O
  O12      1.0000 0.11470  0.00620  0.81440  Biso   1.000  O
  C67      1.0000 0.91680  0.05840  0.61490  Biso   1.000  C
  H49      1.0000 0.98630  0.13570  0.62110  Biso   1.000  H
  C68      1.0000 0.91030  0.92750  0.64040  Biso   1.000  C
  C69      1.0000 0.01430  0.90870  0.67850  Biso   1.000  C
  C70      1.0000 0.80590  0.81360  0.63080  Biso   1.000  C
  H50      1.0000 0.80080  0.72340  0.64760  Biso   1.000  H
  C71      1.0000 0.70830  0.83500  0.59590  Biso   1.000  C
  H51      1.0000 0.63720  0.75890  0.59010  Biso   1.000  H
  C72      1.0000 0.71360  0.96460  0.56980  Biso   1.000  C
  C73      1.0000 0.82020  0.07640  0.57980  Biso   1.000  C
  H52      1.0000 0.82720  0.16530  0.56260  Biso   1.000  H
  C74      1.0000 0.60850  0.98330  0.53270  Biso   1.000  C
  C75      1.0000 0.65400  0.98810  0.48970  Biso   1.000  C
  C76      1.0000 0.45430  0.99480  0.54250  Biso   1.000  C
  H53      1.0000 0.42440  0.99070  0.57140  Biso   1.000  H
  C77      1.0000 0.81570  0.97230  0.47630  Biso   1.000  C
  H54      1.0000 0.86640  0.06910  0.48140  Biso   1.000  H
  H55      1.0000 0.86190  0.89140  0.49310  Biso   1.000  H
  H56      1.0000 0.82120  0.94640  0.44590  Biso   1.000  H
  O13      1.0000 0.99800  0.78810  0.70199  Biso   1.000  O
  O14      1.0000 0.11470  0.00620  0.68560  Biso   1.000  O
  C78      1.0000 0.08320  0.94160  0.11490  Biso   1.000  C
  H57      1.0000 0.01370  0.86430  0.12110  Biso   1.000  H
  C79      1.0000 0.08970  0.07250  0.14040  Biso   1.000  C
  C80      1.0000 0.98570  0.09130  0.17850  Biso   1.000  C
  C81      1.0000 0.19410  0.18640  0.13080  Biso   1.000  C
  H58      1.0000 0.19920  0.27660  0.14760  Biso   1.000  H
  C82      1.0000 0.29170  0.16500  0.09590  Biso   1.000  C
  H59      1.0000 0.36280  0.24110  0.09010  Biso   1.000  H
  C83      1.0000 0.28640  0.03540  0.06980  Biso   1.000  C
  C84      1.0000 0.17980  0.92360  0.07980  Biso   1.000  C
  H60      1.0000 0.17280  0.83470  0.06260  Biso   1.000  H
  C85      1.0000 0.39150  0.01670  0.03270  Biso   1.000  C
  C86      1.0000 0.34600  0.01190  0.98970  Biso   1.000  C
  C87      1.0000 0.54570  0.00520  0.04250  Biso   1.000  C
  H61      1.0000 0.57560  0.00930  0.07140  Biso   1.000  H
  C88      1.0000 0.18430  0.02770  0.97630  Biso   1.000  C
  H62      1.0000 0.13360  0.93090  0.98140  Biso   1.000  H
  H63      1.0000 0.13810  0.10860  0.99310  Biso   1.000  H
  H64      1.0000 0.17880  0.05360  0.94590  Biso   1.000  H
  O15      1.0000 0.00200  0.21190  0.20199  Biso   1.000  O
  O16      1.0000 0.88530  0.99380  0.18560  Biso   1.000  O
  Pb3      1.0000 0.79651  0.18859  0.25000  Biso   1.000  Pb
  Pb4      1.0000 0.20349  0.81141  0.75000  Biso   1.000  Pb
