data_image0
_cell_length_a       11.1658
_cell_length_b       11.1797
_cell_length_c       13.1399
_cell_angle_alpha    67.863
_cell_angle_beta     65.724
_cell_angle_gamma    67.08

_symmetry_space_group_name_H-M    "P 1"
_symmetry_int_tables_number       1

loop_
  _symmetry_equiv_pos_as_xyz
  'x, y, z'

loop_
  _atom_site_label
  _atom_site_occupancy
  _atom_site_fract_x
  _atom_site_fract_y
  _atom_site_fract_z
  _atom_site_thermal_displace_type
  _atom_site_B_iso_or_equiv
  _atom_site_type_symbol
  Br1      1.0000 0.53878  0.25350  0.32917  Biso   1.000  Br
  C1       1.0000 0.67200  0.04560  0.03670  Biso   1.000  C
  C2       1.0000 0.55350  0.03620  0.12740  Biso   1.000  C
  H1       1.0000 0.49950  0.98930  0.12930  Biso   1.000  H
  C3       1.0000 0.51380  0.09560  0.21590  Biso   1.000  C
  H2       1.0000 0.43260  0.09060  0.27580  Biso   1.000  H
  C4       1.0000 0.59690  0.16270  0.21400  Biso   1.000  C
  C5       1.0000 0.71640  0.17070  0.12730  Biso   1.000  C
  H3       1.0000 0.77130  0.21470  0.12820  Biso   1.000  H
  C6       1.0000 0.75670  0.11200  0.03600  Biso   1.000  C
  C7       1.0000 0.87970  0.13400  0.94190  Biso   1.000  C
  H4       1.0000 0.92520  0.18410  0.94780  Biso   1.000  H
  C8       1.0000 0.10100  0.08810  0.68300  Biso   1.000  C
  C9       1.0000 0.28660  0.22490  0.63690  Biso   1.000  C
  H5       1.0000 0.27290  0.18100  0.71850  Biso   1.000  H
  H6       1.0000 0.38290  0.22040  0.60100  Biso   1.000  H
  C10      1.0000 0.20680  0.37070  0.62540  Biso   1.000  C
  C11      1.0000 0.17570  0.43000  0.71160  Biso   1.000  C
  H7       1.0000 0.20010  0.37890  0.77820  Biso   1.000  H
  C12      1.0000 0.10790  0.56600  0.69890  Biso   1.000  C
  H8       1.0000 0.09050  0.60620  0.75580  Biso   1.000  H
  C13      1.0000 0.06630  0.64180  0.60340  Biso   1.000  C
  H9       1.0000 0.01770  0.73200  0.59660  Biso   1.000  H
  C14      1.0000 0.09700  0.58330  0.51950  Biso   1.000  C
  H10      1.0000 0.06990  0.63430  0.45410  Biso   1.000  H
  C15      1.0000 0.16780  0.44920  0.52890  Biso   1.000  C
  H11      1.0000 0.18920  0.41150  0.46920  Biso   1.000  H
  C16      1.0000 0.72880  0.14560  0.61910  Biso   1.000  C
  H12      1.0000 0.77800  0.07030  0.59020  Biso   1.000  H
  C17      1.0000 0.65450  0.25900  0.55470  Biso   1.000  C
  H13      1.0000 0.65450  0.25940  0.48380  Biso   1.000  H
  C18      1.0000 0.58150  0.37020  0.59830  Biso   1.000  C
  C19      1.0000 0.58140  0.36550  0.70250  Biso   1.000  C
  H14      1.0000 0.53080  0.43840  0.73450  Biso   1.000  H
  C20      1.0000 0.65710  0.25170  0.76000  Biso   1.000  C
  H15      1.0000 0.65700  0.25060  0.83120  Biso   1.000  H
  Mo1      1.0000 0.86309  0.93670  0.82738  Biso   1.000  Mo
  N1       1.0000 0.93080  0.09020  0.85110  Biso   1.000  N
  N2       1.0000 0.04560  0.13350  0.77300  Biso   1.000  N
  N3       1.0000 0.73090  0.14250  0.72150  Biso   1.000  N
  N4       1.0000 0.50180  0.51150  0.53740  Biso   1.000  N
  O1       1.0000 0.70210  0.99390  0.94950  Biso   1.000  O
  S1       1.0000 0.04781  0.98346  0.64994  Biso   1.000  S
  S2       1.0000 0.24746  0.12811  0.57590  Biso   1.000  S
  Br2      1.0000 0.46122  0.74650  0.67083  Biso   1.000  Br
  C21      1.0000 0.32800  0.95440  0.96330  Biso   1.000  C
  C22      1.0000 0.44650  0.96380  0.87260  Biso   1.000  C
  H16      1.0000 0.50050  0.01070  0.87070  Biso   1.000  H
  C23      1.0000 0.48620  0.90440  0.78410  Biso   1.000  C
  H17      1.0000 0.56740  0.90940  0.72420  Biso   1.000  H
  C24      1.0000 0.40310  0.83730  0.78600  Biso   1.000  C
  C25      1.0000 0.28360  0.82930  0.87270  Biso   1.000  C
  H18      1.0000 0.22870  0.78530  0.87180  Biso   1.000  H
  C26      1.0000 0.24330  0.88800  0.96400  Biso   1.000  C
  C27      1.0000 0.12030  0.86600  0.05810  Biso   1.000  C
  H19      1.0000 0.07480  0.81590  0.05220  Biso   1.000  H
  C28      1.0000 0.89900  0.91190  0.31700  Biso   1.000  C
  C29      1.0000 0.71340  0.77510  0.36310  Biso   1.000  C
  H20      1.0000 0.72710  0.81900  0.28150  Biso   1.000  H
  H21      1.0000 0.61710  0.77960  0.39900  Biso   1.000  H
  C30      1.0000 0.79320  0.62930  0.37460  Biso   1.000  C
  C31      1.0000 0.82430  0.57000  0.28840  Biso   1.000  C
  H22      1.0000 0.79990  0.62110  0.22180  Biso   1.000  H
  C32      1.0000 0.89210  0.43400  0.30110  Biso   1.000  C
  H23      1.0000 0.90950  0.39380  0.24420  Biso   1.000  H
  C33      1.0000 0.93370  0.35820  0.39660  Biso   1.000  C
  H24      1.0000 0.98230  0.26800  0.40340  Biso   1.000  H
  C34      1.0000 0.90300  0.41670  0.48050  Biso   1.000  C
  H25      1.0000 0.93010  0.36570  0.54590  Biso   1.000  H
  C35      1.0000 0.83220  0.55080  0.47110  Biso   1.000  C
  H26      1.0000 0.81080  0.58850  0.53080  Biso   1.000  H
  C36      1.0000 0.27120  0.85440  0.38090  Biso   1.000  C
  H27      1.0000 0.22200  0.92970  0.40980  Biso   1.000  H
  C37      1.0000 0.34550  0.74100  0.44530  Biso   1.000  C
  H28      1.0000 0.34550  0.74060  0.51620  Biso   1.000  H
  C38      1.0000 0.41850  0.62980  0.40170  Biso   1.000  C
  C39      1.0000 0.41860  0.63450  0.29750  Biso   1.000  C
  H29      1.0000 0.46920  0.56160  0.26550  Biso   1.000  H
  C40      1.0000 0.34290  0.74830  0.24000  Biso   1.000  C
  H30      1.0000 0.34300  0.74940  0.16880  Biso   1.000  H
  Mo2      1.0000 0.13691  0.06330  0.17262  Biso   1.000  Mo
  N5       1.0000 0.06920  0.90980  0.14890  Biso   1.000  N
  N6       1.0000 0.95440  0.86650  0.22700  Biso   1.000  N
  N7       1.0000 0.26910  0.85750  0.27850  Biso   1.000  N
  N8       1.0000 0.49820  0.48850  0.46260  Biso   1.000  N
  O2       1.0000 0.29790  0.00610  0.05050  Biso   1.000  O
  S3       1.0000 0.95219  0.01654  0.35006  Biso   1.000  S
  S4       1.0000 0.75254  0.87189  0.42410  Biso   1.000  S
