data_image0
_cell_length_a       11.787
_cell_length_b       7.459
_cell_length_c       11.559
_cell_angle_alpha    90
_cell_angle_beta     103.14
_cell_angle_gamma    90

_symmetry_space_group_name_H-M    "P 1"
_symmetry_int_tables_number       1

loop_
  _symmetry_equiv_pos_as_xyz
  'x, y, z'

loop_
  _atom_site_label
  _atom_site_occupancy
  _atom_site_fract_x
  _atom_site_fract_y
  _atom_site_fract_z
  _atom_site_thermal_displace_type
  _atom_site_B_iso_or_equiv
  _atom_site_type_symbol
  O1       1.0000 0.40220  0.27640  0.33480  Biso   1.000  O
  N1       1.0000 0.13290  0.04160  0.24920  Biso   1.000  N
  N2       1.0000 0.06780  0.01370  0.14110  Biso   1.000  N
  Cu1      1.0000 0.08300  0.11440  0.88815  Biso   1.000  Cu
  O2       1.0000 0.36990  0.35110  0.07630  Biso   1.000  O
  N3       1.0000 0.11450  0.09510  0.06120  Biso   1.000  N
  C1       1.0000 0.27790  0.26700  0.03960  Biso   1.000  C
  C2       1.0000 0.21590  0.17310  0.11970  Biso   1.000  C
  O3       1.0000 0.22910  0.25330  0.92750  Biso   1.000  O
  C3       1.0000 0.22400  0.14190  0.23900  Biso   1.000  C
  O4       1.0000 0.28670  0.17290  0.44490  Biso   1.000  O
  C4       1.0000 0.31080  0.19790  0.34750  Biso   1.000  C
  O5       1.0000 0.59780  0.27640  0.16520  Biso   1.000  O
  N4       1.0000 0.86710  0.04160  0.25080  Biso   1.000  N
  N5       1.0000 0.93220  0.01370  0.35890  Biso   1.000  N
  Cu2      1.0000 0.91700  0.11440  0.61185  Biso   1.000  Cu
  O6       1.0000 0.63010  0.35110  0.42370  Biso   1.000  O
  N6       1.0000 0.88550  0.09510  0.43880  Biso   1.000  N
  C5       1.0000 0.72210  0.26700  0.46040  Biso   1.000  C
  C6       1.0000 0.78410  0.17310  0.38030  Biso   1.000  C
  O7       1.0000 0.77090  0.25330  0.57250  Biso   1.000  O
  C7       1.0000 0.77600  0.14190  0.26100  Biso   1.000  C
  O8       1.0000 0.71330  0.17290  0.05510  Biso   1.000  O
  C8       1.0000 0.68920  0.19790  0.15250  Biso   1.000  C
  O9       1.0000 0.59780  0.72360  0.66520  Biso   1.000  O
  N7       1.0000 0.86710  0.95840  0.75080  Biso   1.000  N
  N8       1.0000 0.93220  0.98630  0.85890  Biso   1.000  N
  Cu3      1.0000 0.91700  0.88560  0.11185  Biso   1.000  Cu
  O10      1.0000 0.63010  0.64890  0.92370  Biso   1.000  O
  N9       1.0000 0.88550  0.90490  0.93880  Biso   1.000  N
  C9       1.0000 0.72210  0.73300  0.96040  Biso   1.000  C
  C10      1.0000 0.78410  0.82690  0.88030  Biso   1.000  C
  O11      1.0000 0.77090  0.74670  0.07250  Biso   1.000  O
  C11      1.0000 0.77600  0.85810  0.76100  Biso   1.000  C
  O12      1.0000 0.71330  0.82710  0.55510  Biso   1.000  O
  C12      1.0000 0.68920  0.80210  0.65250  Biso   1.000  C
  O13      1.0000 0.40220  0.72360  0.83480  Biso   1.000  O
  N10      1.0000 0.13290  0.95840  0.74920  Biso   1.000  N
  N11      1.0000 0.06780  0.98630  0.64110  Biso   1.000  N
  Cu4      1.0000 0.08300  0.88560  0.38815  Biso   1.000  Cu
  O14      1.0000 0.36990  0.64890  0.57630  Biso   1.000  O
  N12      1.0000 0.11450  0.90490  0.56120  Biso   1.000  N
  C13      1.0000 0.27790  0.73300  0.53960  Biso   1.000  C
  C14      1.0000 0.21590  0.82690  0.61970  Biso   1.000  C
  O15      1.0000 0.22910  0.74670  0.42750  Biso   1.000  O
  C15      1.0000 0.22400  0.85810  0.73900  Biso   1.000  C
  O16      1.0000 0.28670  0.82710  0.94490  Biso   1.000  O
  C16      1.0000 0.31080  0.80210  0.84750  Biso   1.000  C
  Dy1      1.0000 0.50000  0.48008  0.25000  Biso   1.000  Dy
  Dy2      1.0000 0.50000  0.51992  0.75000  Biso   1.000  Dy
  N13      1.0000 0.00000  0.28820  0.75000  Biso   1.000  N
  N14      1.0000 0.00000  0.44720  0.75000  Biso   1.000  N
  N15      1.0000 0.00000  0.59700  0.75000  Biso   1.000  N
  N16      1.0000 0.00000  0.71180  0.25000  Biso   1.000  N
  N17      1.0000 0.00000  0.55280  0.25000  Biso   1.000  N
  N18      1.0000 0.00000  0.40300  0.25000  Biso   1.000  N
