data_image0
_cell_length_a       11.5936
_cell_length_b       11.9201
_cell_length_c       12.1223
_cell_angle_alpha    63.593
_cell_angle_beta     88.025
_cell_angle_gamma    67.331

_symmetry_space_group_name_H-M    "P 1"
_symmetry_int_tables_number       1

loop_
  _symmetry_equiv_pos_as_xyz
  'x, y, z'

loop_
  _atom_site_label
  _atom_site_occupancy
  _atom_site_fract_x
  _atom_site_fract_y
  _atom_site_fract_z
  _atom_site_thermal_displace_type
  _atom_site_B_iso_or_equiv
  _atom_site_type_symbol
  Co1      1.0000 0.79802  0.18642  0.83959  Biso   1.000  Co
  Co2      1.0000 0.75840  0.45878  0.30276  Biso   1.000  Co
  Cl1      1.0000 0.75800  0.59510  0.10559  Biso   1.000  Cl
  Cl2      1.0000 0.92818  0.26090  0.40573  Biso   1.000  Cl
  Cl3      1.0000 0.63834  0.25759  0.69018  Biso   1.000  Cl
  Cl4      1.0000 0.86950  0.95910  0.94548  Biso   1.000  Cl
  N1       1.0000 0.72530  0.26280  0.95890  Biso   1.000  N
  N2       1.0000 0.47000  0.32230  0.29350  Biso   1.000  N
  N3       1.0000 0.61060  0.40580  0.30690  Biso   1.000  N
  N4       1.0000 0.53210  0.41670  0.38990  Biso   1.000  N
  N5       1.0000 0.36130  0.44300  0.52260  Biso   1.000  N
  N6       1.0000 0.27270  0.43660  0.59720  Biso   1.000  N
  N7       1.0000 0.27420  0.31580  0.49720  Biso   1.000  N
  N8       1.0000 0.93260  0.24830  0.75980  Biso   1.000  N
  C1       1.0000 0.80050  0.25140  0.04790  Biso   1.000  C
  H1       1.0000 0.88690  0.22370  0.04520  Biso   1.000  H
  C2       1.0000 0.75450  0.27940  0.14410  Biso   1.000  C
  H2       1.0000 0.80940  0.27160  0.20390  Biso   1.000  H
  C3       1.0000 0.62760  0.31870  0.15100  Biso   1.000  C
  C4       1.0000 0.55000  0.33040  0.05860  Biso   1.000  C
  H3       1.0000 0.46330  0.35820  0.05910  Biso   1.000  H
  C5       1.0000 0.60230  0.30060  0.96620  Biso   1.000  C
  H4       1.0000 0.54920  0.30720  0.90580  Biso   1.000  H
  C6       1.0000 0.57020  0.34820  0.25100  Biso   1.000  C
  C7       1.0000 0.45200  0.36480  0.38030  Biso   1.000  C
  C8       1.0000 0.35900  0.37050  0.46410  Biso   1.000  C
  C9       1.0000 0.22150  0.36070  0.57910  Biso   1.000  C
  C10      1.0000 0.12080  0.32560  0.64310  Biso   1.000  C
  C11      1.0000 0.11770  0.20210  0.66580  Biso   1.000  C
  H5       1.0000 0.17890  0.14250  0.64240  Biso   1.000  H
  C12      1.0000 0.02200  0.16890  0.72380  Biso   1.000  C
  H6       1.0000 0.02080  0.08600  0.73810  Biso   1.000  H
  C13      1.0000 0.93630  0.36680  0.73770  Biso   1.000  C
  H7       1.0000 0.87380  0.42480  0.76160  Biso   1.000  H
  C14      1.0000 0.02810  0.40680  0.68120  Biso   1.000  C
  H8       1.0000 0.02730  0.49000  0.66860  Biso   1.000  H
  Co3      1.0000 0.20198  0.81358  0.16041  Biso   1.000  Co
  Co4      1.0000 0.24160  0.54122  0.69724  Biso   1.000  Co
  Cl5      1.0000 0.24200  0.40490  0.89441  Biso   1.000  Cl
  Cl6      1.0000 0.07182  0.73910  0.59427  Biso   1.000  Cl
  Cl7      1.0000 0.36166  0.74241  0.30982  Biso   1.000  Cl
  Cl8      1.0000 0.13050  0.04090  0.05452  Biso   1.000  Cl
  N9       1.0000 0.27470  0.73720  0.04110  Biso   1.000  N
  N10      1.0000 0.53000  0.67770  0.70650  Biso   1.000  N
  N11      1.0000 0.38940  0.59420  0.69310  Biso   1.000  N
  N12      1.0000 0.46790  0.58330  0.61010  Biso   1.000  N
  N13      1.0000 0.63870  0.55700  0.47740  Biso   1.000  N
  N14      1.0000 0.72730  0.56340  0.40280  Biso   1.000  N
  N15      1.0000 0.72580  0.68420  0.50280  Biso   1.000  N
  N16      1.0000 0.06740  0.75170  0.24020  Biso   1.000  N
  C15      1.0000 0.19950  0.74860  0.95210  Biso   1.000  C
  H9       1.0000 0.11310  0.77630  0.95480  Biso   1.000  H
  C16      1.0000 0.24550  0.72060  0.85590  Biso   1.000  C
  H10      1.0000 0.19060  0.72840  0.79610  Biso   1.000  H
  C17      1.0000 0.37240  0.68130  0.84900  Biso   1.000  C
  C18      1.0000 0.45000  0.66960  0.94140  Biso   1.000  C
  H11      1.0000 0.53670  0.64180  0.94090  Biso   1.000  H
  C19      1.0000 0.39770  0.69940  0.03380  Biso   1.000  C
  H12      1.0000 0.45080  0.69280  0.09420  Biso   1.000  H
  C20      1.0000 0.42980  0.65180  0.74900  Biso   1.000  C
  C21      1.0000 0.54800  0.63520  0.61970  Biso   1.000  C
  C22      1.0000 0.64100  0.62950  0.53590  Biso   1.000  C
  C23      1.0000 0.77850  0.63930  0.42090  Biso   1.000  C
  C24      1.0000 0.87920  0.67440  0.35690  Biso   1.000  C
  C25      1.0000 0.88230  0.79790  0.33420  Biso   1.000  C
  H13      1.0000 0.82110  0.85750  0.35760  Biso   1.000  H
  C26      1.0000 0.97800  0.83110  0.27620  Biso   1.000  C
  H14      1.0000 0.97920  0.91400  0.26190  Biso   1.000  H
  C27      1.0000 0.06370  0.63320  0.26230  Biso   1.000  C
  H15      1.0000 0.12620  0.57520  0.23840  Biso   1.000  H
  C28      1.0000 0.97190  0.59320  0.31880  Biso   1.000  C
  H16      1.0000 0.97270  0.51000  0.33140  Biso   1.000  H
  Co5      1.0000 0.50000  0.50000  0.50000  Biso   1.000  Co
