data_image0
_cell_length_a       11.5529
_cell_length_b       14.295
_cell_length_c       14.7162
_cell_angle_alpha    80.182
_cell_angle_beta     71.327
_cell_angle_gamma    69.012

_symmetry_space_group_name_H-M    "P 1"
_symmetry_int_tables_number       1

loop_
  _symmetry_equiv_pos_as_xyz
  'x, y, z'

loop_
  _atom_site_label
  _atom_site_occupancy
  _atom_site_fract_x
  _atom_site_fract_y
  _atom_site_fract_z
  _atom_site_thermal_displace_type
  _atom_site_B_iso_or_equiv
  _atom_site_type_symbol
  F1       1.0000 0.32980  0.52840  0.01480  Biso   1.000  F
  O1       1.0000 0.12500  0.62780  0.74990  Biso   1.000  O
  C1       1.0000 0.02810  0.64630  0.82630  Biso   1.000  C
  C2       1.0000 0.89860  0.68830  0.82650  Biso   1.000  C
  H1       1.0000 0.87700  0.70830  0.76890  Biso   1.000  H
  C3       1.0000 0.80240  0.69980  0.91330  Biso   1.000  C
  H2       1.0000 0.71690  0.72650  0.91160  Biso   1.000  H
  C4       1.0000 0.95200  0.63690  0.00450  Biso   1.000  C
  C5       1.0000 0.05390  0.62220  0.91840  Biso   1.000  C
  C6       1.0000 0.18110  0.58340  0.92400  Biso   1.000  C
  H3       1.0000 0.24940  0.56930  0.86820  Biso   1.000  H
  C7       1.0000 0.20450  0.56650  0.01090  Biso   1.000  C
  C8       1.0000 0.10590  0.58490  0.09810  Biso   1.000  C
  C9       1.0000 0.98110  0.61700  0.09390  Biso   1.000  C
  H4       1.0000 0.91410  0.62600  0.15060  Biso   1.000  H
  C10      1.0000 0.20540  0.63830  0.19270  Biso   1.000  C
  H5       1.0000 0.26940  0.64510  0.13270  Biso   1.000  H
  H6       1.0000 0.14030  0.70370  0.20570  Biso   1.000  H
  C11      1.0000 0.26910  0.60280  0.27270  Biso   1.000  C
  H7       1.0000 0.33930  0.54030  0.25720  Biso   1.000  H
  H8       1.0000 0.30460  0.65230  0.28000  Biso   1.000  H
  C12      1.0000 0.10540  0.51980  0.35490  Biso   1.000  C
  H9       1.0000 0.16750  0.45330  0.34160  Biso   1.000  H
  H10      1.0000 0.03980  0.51430  0.41440  Biso   1.000  H
  C13      1.0000 0.04400  0.55970  0.27460  Biso   1.000  C
  H11      1.0000 0.98120  0.62590  0.28810  Biso   1.000  H
  H12      1.0000 0.99930  0.51600  0.26910  Biso   1.000  H
  C14      1.0000 0.71600  0.68590  0.09070  Biso   1.000  C
  H13      1.0000 0.71740  0.73580  0.12710  Biso   1.000  H
  H14      1.0000 0.73180  0.62260  0.12880  Biso   1.000  H
  C15      1.0000 0.58380  0.71440  0.07940  Biso   1.000  C
  H15      1.0000 0.56470  0.77790  0.04320  Biso   1.000  H
  H16      1.0000 0.57960  0.66410  0.04610  Biso   1.000  H
  H17      1.0000 0.52180  0.71980  0.14160  Biso   1.000  H
  N1       1.0000 0.82540  0.67470  0.99950  Biso   1.000  N
  N2       1.0000 0.14390  0.56570  0.18370  Biso   1.000  N
  N3       1.0000 0.17100  0.58730  0.36530  Biso   1.000  N
  H18      1.0000 0.11180  0.64700  0.38330  Biso   1.000  H
  H19      1.0000 0.21090  0.56090  0.41170  Biso   1.000  H
  F2       1.0000 0.67020  0.47160  0.98520  Biso   1.000  F
  O2       1.0000 0.87500  0.37220  0.25010  Biso   1.000  O
  C16      1.0000 0.97190  0.35370  0.17370  Biso   1.000  C
  C17      1.0000 0.10140  0.31170  0.17350  Biso   1.000  C
  H20      1.0000 0.12300  0.29170  0.23110  Biso   1.000  H
  C18      1.0000 0.19760  0.30020  0.08670  Biso   1.000  C
  H21      1.0000 0.28310  0.27350  0.08840  Biso   1.000  H
  C19      1.0000 0.04800  0.36310  0.99550  Biso   1.000  C
  C20      1.0000 0.94610  0.37780  0.08160  Biso   1.000  C
  C21      1.0000 0.81890  0.41660  0.07600  Biso   1.000  C
  H22      1.0000 0.75060  0.43070  0.13180  Biso   1.000  H
  C22      1.0000 0.79550  0.43350  0.98910  Biso   1.000  C
  C23      1.0000 0.89410  0.41510  0.90190  Biso   1.000  C
  C24      1.0000 0.01890  0.38300  0.90610  Biso   1.000  C
  H23      1.0000 0.08590  0.37400  0.84940  Biso   1.000  H
  C25      1.0000 0.79460  0.36170  0.80730  Biso   1.000  C
  H24      1.0000 0.73060  0.35490  0.86730  Biso   1.000  H
  H25      1.0000 0.85970  0.29630  0.79430  Biso   1.000  H
  C26      1.0000 0.73090  0.39720  0.72730  Biso   1.000  C
  H26      1.0000 0.66070  0.45970  0.74280  Biso   1.000  H
  H27      1.0000 0.69540  0.34770  0.72000  Biso   1.000  H
  C27      1.0000 0.89460  0.48020  0.64510  Biso   1.000  C
  H28      1.0000 0.83250  0.54670  0.65840  Biso   1.000  H
  H29      1.0000 0.96020  0.48570  0.58560  Biso   1.000  H
  C28      1.0000 0.95600  0.44030  0.72540  Biso   1.000  C
  H30      1.0000 0.01880  0.37410  0.71190  Biso   1.000  H
  H31      1.0000 0.00070  0.48400  0.73090  Biso   1.000  H
  C29      1.0000 0.28400  0.31410  0.90930  Biso   1.000  C
  H32      1.0000 0.28260  0.26420  0.87290  Biso   1.000  H
  H33      1.0000 0.26820  0.37740  0.87120  Biso   1.000  H
  C30      1.0000 0.41620  0.28560  0.92060  Biso   1.000  C
  H34      1.0000 0.43530  0.22210  0.95680  Biso   1.000  H
  H35      1.0000 0.42040  0.33590  0.95390  Biso   1.000  H
  H36      1.0000 0.47820  0.28020  0.85840  Biso   1.000  H
  N4       1.0000 0.17460  0.32530  0.00050  Biso   1.000  N
  N5       1.0000 0.85610  0.43430  0.81630  Biso   1.000  N
  N6       1.0000 0.82900  0.41270  0.63470  Biso   1.000  N
  H37      1.0000 0.88820  0.35300  0.61670  Biso   1.000  H
  H38      1.0000 0.78910  0.43910  0.58830  Biso   1.000  H
  Mo1      1.0000 0.44801  0.54083  0.61551  Biso   1.000  Mo
  Mo2      1.0000 0.31838  0.38846  0.57673  Biso   1.000  Mo
  Mo3      1.0000 0.62094  0.25050  0.55032  Biso   1.000  Mo
  Mo4      1.0000 0.85248  0.32132  0.39593  Biso   1.000  Mo
  O3       1.0000 0.59900  0.55910  0.58690  Biso   1.000  O
  O4       1.0000 0.34110  0.67580  0.60760  Biso   1.000  O
  O5       1.0000 0.27980  0.52860  0.59300  Biso   1.000  O
  O6       1.0000 0.50560  0.41340  0.55790  Biso   1.000  O
  O7       1.0000 0.45610  0.26590  0.52930  Biso   1.000  O
  O8       1.0000 0.76790  0.29560  0.52690  Biso   1.000  O
  Mo5      1.0000 0.55199  0.45917  0.38449  Biso   1.000  Mo
  Mo6      1.0000 0.68162  0.61154  0.42327  Biso   1.000  Mo
  Mo7      1.0000 0.37906  0.74950  0.44968  Biso   1.000  Mo
  Mo8      1.0000 0.14752  0.67868  0.60407  Biso   1.000  Mo
  O9       1.0000 0.40100  0.44090  0.41310  Biso   1.000  O
  O10      1.0000 0.65890  0.32420  0.39240  Biso   1.000  O
  O11      1.0000 0.72020  0.47140  0.40700  Biso   1.000  O
  O12      1.0000 0.49440  0.58660  0.44210  Biso   1.000  O
  O13      1.0000 0.54390  0.73410  0.47070  Biso   1.000  O
  O14      1.0000 0.23210  0.70440  0.47310  Biso   1.000  O
