data_image0
_cell_length_a       9.6387
_cell_length_b       10.9157
_cell_length_c       14.6164
_cell_angle_alpha    71.286
_cell_angle_beta     86.654
_cell_angle_gamma    69.072

_symmetry_space_group_name_H-M    "P 1"
_symmetry_int_tables_number       1

loop_
  _symmetry_equiv_pos_as_xyz
  'x, y, z'

loop_
  _atom_site_label
  _atom_site_occupancy
  _atom_site_fract_x
  _atom_site_fract_y
  _atom_site_fract_z
  _atom_site_thermal_displace_type
  _atom_site_B_iso_or_equiv
  _atom_site_type_symbol
  Cd1      1.0000 0.69567  0.47490  0.25091  Biso   1.000  Cd
  N1       1.0000 0.42640  0.27110  0.16272  Biso   1.000  N
  N2       1.0000 0.49090  0.30600  0.07772  Biso   1.000  N
  N3       1.0000 0.56280  0.38060  0.18644  Biso   1.000  N
  N4       1.0000 0.66540  0.67070  0.11139  Biso   1.000  N
  H1       1.0000 0.75790  0.67110  0.09220  Biso   1.000  H
  H2       1.0000 0.61800  0.66250  0.06200  Biso   1.000  H
  N5       1.0000 0.25740  0.68630  0.34390  Biso   1.000  N
  N6       1.0000 0.33850  0.68210  0.41884  Biso   1.000  N
  N7       1.0000 0.48860  0.59530  0.31459  Biso   1.000  N
  N8       1.0000 0.92140  0.34020  0.19820  Biso   1.000  N
  H3       1.0000 0.91410  0.36890  0.13160  Biso   1.000  H
  H4       1.0000 0.99810  0.36070  0.21640  Biso   1.000  H
  C1       1.0000 0.57200  0.37130  0.09540  Biso   1.000  C
  H5       1.0000 0.63170  0.40860  0.04890  Biso   1.000  H
  C2       1.0000 0.47050  0.31510  0.22650  Biso   1.000  C
  H6       1.0000 0.44080  0.30180  0.29100  Biso   1.000  H
  C3       1.0000 0.33380  0.18610  0.17590  Biso   1.000  C
  H7       1.0000 0.24530  0.23690  0.12970  Biso   1.000  H
  H8       1.0000 0.29900  0.16850  0.24230  Biso   1.000  H
  C4       1.0000 0.42030  0.04980  0.15970  Biso   1.000  C
  C5       1.0000 0.56890  0.97800  0.19400  Biso   1.000  C
  H9       1.0000 0.61560  0.01380  0.22930  Biso   1.000  H
  C6       1.0000 0.64860  0.85480  0.17670  Biso   1.000  C
  H10      1.0000 0.75010  0.80690  0.19950  Biso   1.000  H
  C7       1.0000 0.58120  0.80110  0.12640  Biso   1.000  C
  C8       1.0000 0.43320  0.87020  0.09330  Biso   1.000  C
  H11      1.0000 0.38600  0.83280  0.05970  Biso   1.000  H
  C9       1.0000 0.35420  0.99470  0.10970  Biso   1.000  C
  H12      1.0000 0.25300  0.04280  0.08620  Biso   1.000  H
  C10      1.0000 0.47640  0.62710  0.39770  Biso   1.000  C
  H13      1.0000 0.56010  0.61110  0.43710  Biso   1.000  H
  C11      1.0000 0.34800  0.63480  0.28300  Biso   1.000  C
  H14      1.0000 0.31700  0.62720  0.22510  Biso   1.000  H
  C12      1.0000 0.09460  0.74790  0.33670  Biso   1.000  C
  H15      1.0000 0.05640  0.71620  0.40100  Biso   1.000  H
  H16      1.0000 0.05400  0.71640  0.29150  Biso   1.000  H
  C13      1.0000 0.04210  0.90440  0.30130  Biso   1.000  C
  C14      1.0000 0.06590  0.97480  0.35940  Biso   1.000  C
  H17      1.0000 0.10950  0.92450  0.42340  Biso   1.000  H
  C15      1.0000 0.02700  0.11670  0.32540  Biso   1.000  C
  H18      1.0000 0.04460  0.16330  0.36580  Biso   1.000  H
  C16      1.0000 0.96230  0.19180  0.23260  Biso   1.000  C
  C17      1.0000 0.93380  0.12330  0.17470  Biso   1.000  C
  H19      1.0000 0.88650  0.17410  0.11180  Biso   1.000  H
  C18      1.0000 0.97500  0.97950  0.20950  Biso   1.000  C
  H20      1.0000 0.95670  0.93270  0.16950  Biso   1.000  H
  Cd2      1.0000 0.30433  0.52510  0.74910  Biso   1.000  Cd
  N9       1.0000 0.57360  0.72890  0.83728  Biso   1.000  N
  N10      1.0000 0.50910  0.69400  0.92228  Biso   1.000  N
  N11      1.0000 0.43720  0.61940  0.81356  Biso   1.000  N
  N12      1.0000 0.33460  0.32930  0.88861  Biso   1.000  N
  H21      1.0000 0.24210  0.32890  0.90780  Biso   1.000  H
  H22      1.0000 0.38200  0.33750  0.93800  Biso   1.000  H
  N13      1.0000 0.74260  0.31370  0.65610  Biso   1.000  N
  N14      1.0000 0.66150  0.31790  0.58116  Biso   1.000  N
  N15      1.0000 0.51140  0.40470  0.68541  Biso   1.000  N
  N16      1.0000 0.07860  0.65980  0.80180  Biso   1.000  N
  H23      1.0000 0.08590  0.63110  0.86840  Biso   1.000  H
  H24      1.0000 0.00190  0.63930  0.78360  Biso   1.000  H
  C19      1.0000 0.42800  0.62870  0.90460  Biso   1.000  C
  H25      1.0000 0.36830  0.59140  0.95110  Biso   1.000  H
  C20      1.0000 0.52950  0.68490  0.77350  Biso   1.000  C
  H26      1.0000 0.55920  0.69820  0.70900  Biso   1.000  H
  C21      1.0000 0.66620  0.81390  0.82410  Biso   1.000  C
  H27      1.0000 0.75470  0.76310  0.87030  Biso   1.000  H
  H28      1.0000 0.70100  0.83150  0.75770  Biso   1.000  H
  C22      1.0000 0.57970  0.95020  0.84030  Biso   1.000  C
  C23      1.0000 0.43110  0.02200  0.80600  Biso   1.000  C
  H29      1.0000 0.38440  0.98620  0.77070  Biso   1.000  H
  C24      1.0000 0.35140  0.14520  0.82330  Biso   1.000  C
  H30      1.0000 0.24990  0.19310  0.80050  Biso   1.000  H
  C25      1.0000 0.41880  0.19890  0.87360  Biso   1.000  C
  C26      1.0000 0.56680  0.12980  0.90670  Biso   1.000  C
  H31      1.0000 0.61400  0.16720  0.94030  Biso   1.000  H
  C27      1.0000 0.64580  0.00530  0.89030  Biso   1.000  C
  H32      1.0000 0.74700  0.95720  0.91380  Biso   1.000  H
  C28      1.0000 0.52360  0.37290  0.60230  Biso   1.000  C
  H33      1.0000 0.43990  0.38890  0.56290  Biso   1.000  H
  C29      1.0000 0.65200  0.36520  0.71700  Biso   1.000  C
  H34      1.0000 0.68300  0.37280  0.77490  Biso   1.000  H
  C30      1.0000 0.90540  0.25210  0.66330  Biso   1.000  C
  H35      1.0000 0.94360  0.28380  0.59900  Biso   1.000  H
  H36      1.0000 0.94600  0.28360  0.70850  Biso   1.000  H
  C31      1.0000 0.95790  0.09560  0.69870  Biso   1.000  C
  C32      1.0000 0.93410  0.02520  0.64060  Biso   1.000  C
  H37      1.0000 0.89050  0.07550  0.57660  Biso   1.000  H
  C33      1.0000 0.97300  0.88330  0.67460  Biso   1.000  C
  H38      1.0000 0.95540  0.83670  0.63420  Biso   1.000  H
  C34      1.0000 0.03770  0.80820  0.76740  Biso   1.000  C
  C35      1.0000 0.06620  0.87670  0.82530  Biso   1.000  C
  H39      1.0000 0.11350  0.82590  0.88820  Biso   1.000  H
  C36      1.0000 0.02500  0.02050  0.79050  Biso   1.000  C
  H40      1.0000 0.04330  0.06730  0.83050  Biso   1.000  H
