data_image0
_cell_length_a       14.052
_cell_length_b       32.528
_cell_length_c       17.992
_cell_angle_alpha    90
_cell_angle_beta     103.462
_cell_angle_gamma    90

_symmetry_space_group_name_H-M    "P 1"
_symmetry_int_tables_number       1

loop_
  _symmetry_equiv_pos_as_xyz
  'x, y, z'

loop_
  _atom_site_label
  _atom_site_occupancy
  _atom_site_fract_x
  _atom_site_fract_y
  _atom_site_fract_z
  _atom_site_thermal_displace_type
  _atom_site_B_iso_or_equiv
  _atom_site_type_symbol
  Bi1      1.0000 0.67139  0.67996  0.27330  Biso   1.000  Bi
  W1       1.0000 0.46010  0.65607  0.12259  Biso   1.000  W
  W2       1.0000 0.43307  0.65654  0.30145  Biso   1.000  W
  W3       1.0000 0.64897  0.65502  0.46443  Biso   1.000  W
  W4       1.0000 0.87217  0.65541  0.42967  Biso   1.000  W
  W5       1.0000 0.90382  0.65519  0.23161  Biso   1.000  W
  W6       1.0000 0.70822  0.65519  0.08590  Biso   1.000  W
  W7       1.0000 0.51442  0.57186  0.23148  Biso   1.000  W
  W8       1.0000 0.73518  0.57058  0.39313  Biso   1.000  W
  W9       1.0000 0.76295  0.57034  0.19262  Biso   1.000  W
  O1       1.0000 0.44490  0.59520  0.13570  Biso   1.000  O
  O2       1.0000 0.37510  0.66410  0.18970  Biso   1.000  O
  O3       1.0000 0.42100  0.59760  0.27950  Biso   1.000  O
  O4       1.0000 0.52430  0.64210  0.39360  Biso   1.000  O
  O5       1.0000 0.67340  0.59430  0.46840  Biso   1.000  O
  O6       1.0000 0.79090  0.66190  0.50570  Biso   1.000  O
  O7       1.0000 0.85530  0.59520  0.44200  Biso   1.000  O
  O8       1.0000 0.91030  0.64200  0.33670  Biso   1.000  O
  O9       1.0000 0.89440  0.59500  0.21500  Biso   1.000  O
  O10      1.0000 0.85410  0.66100  0.12220  Biso   1.000  O
  O11      1.0000 0.73760  0.59480  0.09490  Biso   1.000  O
  O12      1.0000 0.57540  0.64180  0.08610  Biso   1.000  O
  O13      1.0000 0.51190  0.70630  0.14140  Biso   1.000  O
  O14      1.0000 0.48770  0.70770  0.30590  Biso   1.000  O
  O15      1.0000 0.63850  0.70720  0.43070  Biso   1.000  O
  O16      1.0000 0.84050  0.70760  0.39350  Biso   1.000  O
  O17      1.0000 0.87250  0.70710  0.25090  Biso   1.000  O
  O18      1.0000 0.69030  0.70750  0.11450  Biso   1.000  O
  O19      1.0000 0.60270  0.56640  0.32580  Biso   1.000  O
  O20      1.0000 0.77640  0.56550  0.30220  Biso   1.000  O
  O21      1.0000 0.62730  0.56540  0.19000  Biso   1.000  O
  O22      1.0000 0.54850  0.63990  0.23990  Biso   1.000  O
  O23      1.0000 0.71830  0.64060  0.36770  Biso   1.000  O
  O24      1.0000 0.74480  0.64020  0.21050  Biso   1.000  O
  Bi2      1.0000 0.67139  0.82004  0.27330  Biso   1.000  Bi
  W10      1.0000 0.46010  0.84393  0.12259  Biso   1.000  W
  W11      1.0000 0.43307  0.84346  0.30145  Biso   1.000  W
  W12      1.0000 0.64897  0.84498  0.46443  Biso   1.000  W
  W13      1.0000 0.87217  0.84459  0.42967  Biso   1.000  W
  W14      1.0000 0.90382  0.84481  0.23161  Biso   1.000  W
  W15      1.0000 0.70822  0.84481  0.08590  Biso   1.000  W
  W16      1.0000 0.51442  0.92814  0.23148  Biso   1.000  W
  W17      1.0000 0.73518  0.92942  0.39313  Biso   1.000  W
  W18      1.0000 0.76295  0.92966  0.19262  Biso   1.000  W
  O25      1.0000 0.44490  0.90480  0.13570  Biso   1.000  O
  O26      1.0000 0.37510  0.83590  0.18970  Biso   1.000  O
  O27      1.0000 0.42100  0.90240  0.27950  Biso   1.000  O
  O28      1.0000 0.52430  0.85790  0.39360  Biso   1.000  O
  O29      1.0000 0.67340  0.90570  0.46840  Biso   1.000  O
  O30      1.0000 0.79090  0.83810  0.50570  Biso   1.000  O
  O31      1.0000 0.85530  0.90480  0.44200  Biso   1.000  O
  O32      1.0000 0.91030  0.85800  0.33670  Biso   1.000  O
  O33      1.0000 0.89440  0.90500  0.21500  Biso   1.000  O
  O34      1.0000 0.85410  0.83900  0.12220  Biso   1.000  O
  O35      1.0000 0.73760  0.90520  0.09490  Biso   1.000  O
  O36      1.0000 0.57540  0.85820  0.08610  Biso   1.000  O
  O37      1.0000 0.51190  0.79370  0.14140  Biso   1.000  O
  O38      1.0000 0.48770  0.79230  0.30590  Biso   1.000  O
  O39      1.0000 0.63850  0.79280  0.43070  Biso   1.000  O
  O40      1.0000 0.84050  0.79240  0.39350  Biso   1.000  O
  O41      1.0000 0.87250  0.79290  0.25090  Biso   1.000  O
  O42      1.0000 0.69030  0.79250  0.11450  Biso   1.000  O
  O43      1.0000 0.60270  0.93360  0.32580  Biso   1.000  O
  O44      1.0000 0.77640  0.93450  0.30220  Biso   1.000  O
  O45      1.0000 0.62730  0.93460  0.19000  Biso   1.000  O
  O46      1.0000 0.54850  0.86010  0.23990  Biso   1.000  O
  O47      1.0000 0.71830  0.85940  0.36770  Biso   1.000  O
  O48      1.0000 0.74480  0.85980  0.21050  Biso   1.000  O
  Cu1      1.0000 0.59250  0.75000  0.11330  Biso   1.000  Cu
  Cu2      1.0000 0.54540  0.75000  0.38013  Biso   1.000  Cu
  Cu3      1.0000 0.87730  0.75000  0.32883  Biso   1.000  Cu
  Na1      1.0000 0.40310  0.75000  0.19730  Biso   1.000  Na
  Na2      1.0000 0.78000  0.75000  0.48430  Biso   1.000  Na
  Na3      1.0000 0.83740  0.75000  0.13330  Biso   1.000  Na
  Bi3      1.0000 0.32861  0.17996  0.72670  Biso   1.000  Bi
  W19      1.0000 0.53990  0.15607  0.87741  Biso   1.000  W
  W20      1.0000 0.56693  0.15654  0.69855  Biso   1.000  W
  W21      1.0000 0.35103  0.15502  0.53557  Biso   1.000  W
  W22      1.0000 0.12783  0.15541  0.57033  Biso   1.000  W
  W23      1.0000 0.09618  0.15519  0.76839  Biso   1.000  W
  W24      1.0000 0.29178  0.15519  0.91410  Biso   1.000  W
  W25      1.0000 0.48558  0.07186  0.76852  Biso   1.000  W
  W26      1.0000 0.26482  0.07058  0.60687  Biso   1.000  W
  W27      1.0000 0.23705  0.07034  0.80738  Biso   1.000  W
  O49      1.0000 0.55510  0.09520  0.86430  Biso   1.000  O
  O50      1.0000 0.62490  0.16410  0.81030  Biso   1.000  O
  O51      1.0000 0.57900  0.09760  0.72050  Biso   1.000  O
  O52      1.0000 0.47570  0.14210  0.60640  Biso   1.000  O
  O53      1.0000 0.32660  0.09430  0.53160  Biso   1.000  O
  O54      1.0000 0.20910  0.16190  0.49430  Biso   1.000  O
  O55      1.0000 0.14470  0.09520  0.55800  Biso   1.000  O
  O56      1.0000 0.08970  0.14200  0.66330  Biso   1.000  O
  O57      1.0000 0.10560  0.09500  0.78500  Biso   1.000  O
  O58      1.0000 0.14590  0.16100  0.87780  Biso   1.000  O
  O59      1.0000 0.26240  0.09480  0.90510  Biso   1.000  O
  O60      1.0000 0.42460  0.14180  0.91390  Biso   1.000  O
  O61      1.0000 0.48810  0.20630  0.85860  Biso   1.000  O
  O62      1.0000 0.51230  0.20770  0.69410  Biso   1.000  O
  O63      1.0000 0.36150  0.20720  0.56930  Biso   1.000  O
  O64      1.0000 0.15950  0.20760  0.60650  Biso   1.000  O
  O65      1.0000 0.12750  0.20710  0.74910  Biso   1.000  O
  O66      1.0000 0.30970  0.20750  0.88550  Biso   1.000  O
  O67      1.0000 0.39730  0.06640  0.67420  Biso   1.000  O
  O68      1.0000 0.22360  0.06550  0.69780  Biso   1.000  O
  O69      1.0000 0.37270  0.06540  0.81000  Biso   1.000  O
  O70      1.0000 0.45150  0.13990  0.76010  Biso   1.000  O
  O71      1.0000 0.28170  0.14060  0.63230  Biso   1.000  O
  O72      1.0000 0.25520  0.14020  0.78950  Biso   1.000  O
  Bi4      1.0000 0.32861  0.32004  0.72670  Biso   1.000  Bi
  W28      1.0000 0.53990  0.34393  0.87741  Biso   1.000  W
  W29      1.0000 0.56693  0.34346  0.69855  Biso   1.000  W
  W30      1.0000 0.35103  0.34498  0.53557  Biso   1.000  W
  W31      1.0000 0.12783  0.34459  0.57033  Biso   1.000  W
  W32      1.0000 0.09618  0.34481  0.76839  Biso   1.000  W
  W33      1.0000 0.29178  0.34481  0.91410  Biso   1.000  W
  W34      1.0000 0.48558  0.42814  0.76852  Biso   1.000  W
  W35      1.0000 0.26482  0.42942  0.60687  Biso   1.000  W
  W36      1.0000 0.23705  0.42966  0.80738  Biso   1.000  W
  O73      1.0000 0.55510  0.40480  0.86430  Biso   1.000  O
  O74      1.0000 0.62490  0.33590  0.81030  Biso   1.000  O
  O75      1.0000 0.57900  0.40240  0.72050  Biso   1.000  O
  O76      1.0000 0.47570  0.35790  0.60640  Biso   1.000  O
  O77      1.0000 0.32660  0.40570  0.53160  Biso   1.000  O
  O78      1.0000 0.20910  0.33810  0.49430  Biso   1.000  O
  O79      1.0000 0.14470  0.40480  0.55800  Biso   1.000  O
  O80      1.0000 0.08970  0.35800  0.66330  Biso   1.000  O
  O81      1.0000 0.10560  0.40500  0.78500  Biso   1.000  O
  O82      1.0000 0.14590  0.33900  0.87780  Biso   1.000  O
  O83      1.0000 0.26240  0.40520  0.90510  Biso   1.000  O
  O84      1.0000 0.42460  0.35820  0.91390  Biso   1.000  O
  O85      1.0000 0.48810  0.29370  0.85860  Biso   1.000  O
  O86      1.0000 0.51230  0.29230  0.69410  Biso   1.000  O
  O87      1.0000 0.36150  0.29280  0.56930  Biso   1.000  O
  O88      1.0000 0.15950  0.29240  0.60650  Biso   1.000  O
  O89      1.0000 0.12750  0.29290  0.74910  Biso   1.000  O
  O90      1.0000 0.30970  0.29250  0.88550  Biso   1.000  O
  O91      1.0000 0.39730  0.43360  0.67420  Biso   1.000  O
  O92      1.0000 0.22360  0.43450  0.69780  Biso   1.000  O
  O93      1.0000 0.37270  0.43460  0.81000  Biso   1.000  O
  O94      1.0000 0.45150  0.36010  0.76010  Biso   1.000  O
  O95      1.0000 0.28170  0.35940  0.63230  Biso   1.000  O
  O96      1.0000 0.25520  0.35980  0.78950  Biso   1.000  O
  Cu4      1.0000 0.40750  0.25000  0.88670  Biso   1.000  Cu
  Cu5      1.0000 0.45460  0.25000  0.61987  Biso   1.000  Cu
  Cu6      1.0000 0.12270  0.25000  0.67117  Biso   1.000  Cu
  Na4      1.0000 0.59690  0.25000  0.80270  Biso   1.000  Na
  Na5      1.0000 0.22000  0.25000  0.51570  Biso   1.000  Na
  Na6      1.0000 0.16260  0.25000  0.86670  Biso   1.000  Na
  Cu7      1.0000 0.40698  0.45404  0.18701  Biso   1.000  Cu
  Cu8      1.0000 0.76045  0.44509  0.44550  Biso   1.000  Cu
  C1       1.0000 0.57710  0.46760  0.11940  Biso   1.000  C
  H1       1.0000 0.61320  0.47880  0.16470  Biso   1.000  H
  C2       1.0000 0.60720  0.46210  0.05260  Biso   1.000  C
  H2       1.0000 0.66650  0.47050  0.04320  Biso   1.000  H
  C3       1.0000 0.45820  0.43880  0.03610  Biso   1.000  C
  H3       1.0000 0.39730  0.42790  0.01280  Biso   1.000  H
  C4       1.0000 0.23000  0.44720  0.06650  Biso   1.000  C
  H4       1.0000 0.23180  0.41860  0.06500  Biso   1.000  H
  C5       1.0000 0.17070  0.51690  0.03590  Biso   1.000  C
  H5       1.0000 0.13510  0.53980  0.01470  Biso   1.000  H
  C6       1.0000 0.25790  0.51070  0.09930  Biso   1.000  C
  H6       1.0000 0.28860  0.53270  0.12820  Biso   1.000  H
  C7       1.0000 0.35130  0.42720  0.32860  Biso   1.000  C
  H7       1.0000 0.41030  0.41330  0.34490  Biso   1.000  H
  C8       1.0000 0.23200  0.46170  0.26090  Biso   1.000  C
  H8       1.0000 0.19760  0.47910  0.22310  Biso   1.000  H
  C9       1.0000 0.20100  0.44660  0.32130  Biso   1.000  C
  H9       1.0000 0.13750  0.44780  0.32880  Biso   1.000  H
  C10      1.0000 0.58270  0.45080  0.31250  Biso   1.000  C
  H10      1.0000 0.57820  0.47890  0.32070  Biso   1.000  H
  C11      1.0000 0.63050  0.38890  0.32550  Biso   1.000  C
  H11      1.0000 0.66390  0.36480  0.34280  Biso   1.000  H
  C12      1.0000 0.55090  0.39260  0.26560  Biso   1.000  C
  H12      1.0000 0.52130  0.37120  0.23450  Biso   1.000  H
  C13      1.0000 0.58200  0.42330  0.51010  Biso   1.000  C
  H13      1.0000 0.56160  0.39980  0.48140  Biso   1.000  H
  C14      1.0000 0.63000  0.42800  0.53200  Biso   1.000  C
  C15      1.0000 0.92200  0.48710  0.55520  Biso   1.000  C
  H14      1.0000 0.90970  0.51170  0.52810  Biso   1.000  H
  C16      1.0000 0.55400  0.48320  0.56300  Biso   1.000  C
  H15      1.0000 0.51810  0.50290  0.58240  Biso   1.000  H
  C17      1.0000 0.59000  0.47050  0.61000  Biso   1.000  C
  C18      1.0000 0.99800  0.48150  0.61970  Biso   1.000  C
  H16      1.0000 0.04610  0.49960  0.64480  Biso   1.000  H
  C19      1.0000 0.62900  0.48720  0.52900  Biso   1.000  C
  H17      1.0000 0.65350  0.51270  0.51950  Biso   1.000  H
  C20      1.0000 0.67700  0.47500  0.57200  Biso   1.000  C
  C21      1.0000 0.90590  0.42550  0.58420  Biso   1.000  C
  H18      1.0000 0.88440  0.39850  0.58370  Biso   1.000  H
  C22      1.0000 0.93160  0.41390  0.39570  Biso   1.000  C
  H19      1.0000 0.96130  0.40600  0.44540  Biso   1.000  H
  C23      1.0000 0.90770  0.42100  0.27420  Biso   1.000  C
  H20      1.0000 0.91320  0.41980  0.22370  Biso   1.000  H
  C24      1.0000 0.83530  0.43980  0.30130  Biso   1.000  C
  H21      1.0000 0.78270  0.45380  0.27090  Biso   1.000  H
  N1       1.0000 0.48400  0.45320  0.10560  Biso   1.000  N
  N2       1.0000 0.53580  0.44250  0.00400  Biso   1.000  N
  H22      1.0000 0.53860  0.43360  0.95950  Biso   1.000  H
  N3       1.0000 0.28960  0.47390  0.11260  Biso   1.000  N
  N4       1.0000 0.16270  0.47550  0.02060  Biso   1.000  N
  H23      1.0000 0.11740  0.46650  0.98340  Biso   1.000  H
  N5       1.0000 0.32640  0.44640  0.26580  Biso   1.000  N
  N6       1.0000 0.28120  0.42920  0.36890  Biso   1.000  N
  H24      1.0000 0.28620  0.42120  0.41520  Biso   1.000  H
  N7       1.0000 0.52150  0.43270  0.25850  Biso   1.000  N
  N8       1.0000 0.65230  0.42840  0.35610  Biso   1.000  N
  N9       1.0000 0.66560  0.45070  0.50900  Biso   1.000  N
  N10      1.0000 0.54530  0.44030  0.56040  Biso   1.000  N
  H25      1.0000 0.51760  0.42660  0.59040  Biso   1.000  H
  N11      1.0000 0.86850  0.45260  0.53680  Biso   1.000  N
  N12      1.0000 0.98060  0.44130  0.63490  Biso   1.000  N
  H26      1.0000 0.01450  0.42780  0.67310  Biso   1.000  H
  N13      1.0000 0.85020  0.43510  0.37950  Biso   1.000  N
  N14      1.0000 0.96930  0.40450  0.33570  Biso   1.000  N
  H27      1.0000 0.02190  0.39070  0.33650  Biso   1.000  H
  Cu9      1.0000 0.59302  0.95404  0.81299  Biso   1.000  Cu
  Cu10     1.0000 0.23955  0.94509  0.55450  Biso   1.000  Cu
  C25      1.0000 0.42290  0.96760  0.88060  Biso   1.000  C
  H28      1.0000 0.38680  0.97880  0.83530  Biso   1.000  H
  C26      1.0000 0.39280  0.96210  0.94740  Biso   1.000  C
  H29      1.0000 0.33350  0.97050  0.95680  Biso   1.000  H
  C27      1.0000 0.54180  0.93880  0.96390  Biso   1.000  C
  H30      1.0000 0.60270  0.92790  0.98720  Biso   1.000  H
  C28      1.0000 0.77000  0.94720  0.93350  Biso   1.000  C
  H31      1.0000 0.76820  0.91860  0.93500  Biso   1.000  H
  C29      1.0000 0.82930  0.01690  0.96410  Biso   1.000  C
  H32      1.0000 0.86490  0.03980  0.98530  Biso   1.000  H
  C30      1.0000 0.74210  0.01070  0.90070  Biso   1.000  C
  H33      1.0000 0.71140  0.03270  0.87180  Biso   1.000  H
  C31      1.0000 0.64870  0.92720  0.67140  Biso   1.000  C
  H34      1.0000 0.58970  0.91330  0.65510  Biso   1.000  H
  C32      1.0000 0.76800  0.96170  0.73910  Biso   1.000  C
  H35      1.0000 0.80240  0.97910  0.77690  Biso   1.000  H
  C33      1.0000 0.79900  0.94660  0.67870  Biso   1.000  C
  H36      1.0000 0.86250  0.94780  0.67120  Biso   1.000  H
  C34      1.0000 0.41730  0.95080  0.68750  Biso   1.000  C
  H37      1.0000 0.42180  0.97890  0.67930  Biso   1.000  H
  C35      1.0000 0.36950  0.88890  0.67450  Biso   1.000  C
  H38      1.0000 0.33610  0.86480  0.65720  Biso   1.000  H
  C36      1.0000 0.44910  0.89260  0.73440  Biso   1.000  C
  H39      1.0000 0.47870  0.87120  0.76550  Biso   1.000  H
  C37      1.0000 0.41800  0.92330  0.48990  Biso   1.000  C
  H40      1.0000 0.43840  0.89980  0.51860  Biso   1.000  H
  C38      1.0000 0.37000  0.92800  0.46800  Biso   1.000  C
  C39      1.0000 0.07800  0.98710  0.44480  Biso   1.000  C
  H41      1.0000 0.09030  0.01170  0.47190  Biso   1.000  H
  C40      1.0000 0.44600  0.98320  0.43700  Biso   1.000  C
  H42      1.0000 0.48190  0.00290  0.41760  Biso   1.000  H
  C41      1.0000 0.41000  0.97050  0.39000  Biso   1.000  C
  C42      1.0000 0.00200  0.98150  0.38030  Biso   1.000  C
  H43      1.0000 0.95390  0.99960  0.35520  Biso   1.000  H
  C43      1.0000 0.37100  0.98720  0.47100  Biso   1.000  C
  H44      1.0000 0.34650  0.01270  0.48050  Biso   1.000  H
  C44      1.0000 0.32300  0.97500  0.42800  Biso   1.000  C
  C45      1.0000 0.09410  0.92550  0.41580  Biso   1.000  C
  H45      1.0000 0.11560  0.89850  0.41630  Biso   1.000  H
  C46      1.0000 0.06840  0.91390  0.60430  Biso   1.000  C
  H46      1.0000 0.03870  0.90600  0.55460  Biso   1.000  H
  C47      1.0000 0.09230  0.92100  0.72580  Biso   1.000  C
  H47      1.0000 0.08680  0.91980  0.77630  Biso   1.000  H
  C48      1.0000 0.16470  0.93980  0.69870  Biso   1.000  C
  H48      1.0000 0.21730  0.95380  0.72910  Biso   1.000  H
  N15      1.0000 0.51600  0.95320  0.89440  Biso   1.000  N
  N16      1.0000 0.46420  0.94250  0.99600  Biso   1.000  N
  H49      1.0000 0.46140  0.93360  0.04050  Biso   1.000  H
  N17      1.0000 0.71040  0.97390  0.88740  Biso   1.000  N
  N18      1.0000 0.83730  0.97550  0.97940  Biso   1.000  N
  H50      1.0000 0.88260  0.96650  0.01660  Biso   1.000  H
  N19      1.0000 0.67360  0.94640  0.73420  Biso   1.000  N
  N20      1.0000 0.71880  0.92920  0.63110  Biso   1.000  N
  H51      1.0000 0.71380  0.92120  0.58480  Biso   1.000  H
  N21      1.0000 0.47850  0.93270  0.74150  Biso   1.000  N
  N22      1.0000 0.34770  0.92840  0.64390  Biso   1.000  N
  N23      1.0000 0.33440  0.95070  0.49100  Biso   1.000  N
  N24      1.0000 0.45470  0.94030  0.43960  Biso   1.000  N
  H52      1.0000 0.48240  0.92660  0.40960  Biso   1.000  H
  N25      1.0000 0.13150  0.95260  0.46320  Biso   1.000  N
  N26      1.0000 0.01940  0.94130  0.36510  Biso   1.000  N
  H53      1.0000 0.98550  0.92780  0.32690  Biso   1.000  H
  N27      1.0000 0.14980  0.93510  0.62050  Biso   1.000  N
  N28      1.0000 0.03070  0.90450  0.66430  Biso   1.000  N
  H54      1.0000 0.97810  0.89070  0.66350  Biso   1.000  H
  Cu11     1.0000 0.59302  0.54596  0.81299  Biso   1.000  Cu
  Cu12     1.0000 0.23955  0.55491  0.55450  Biso   1.000  Cu
  C49      1.0000 0.42290  0.53240  0.88060  Biso   1.000  C
  H55      1.0000 0.38680  0.52120  0.83530  Biso   1.000  H
  C50      1.0000 0.39280  0.53790  0.94740  Biso   1.000  C
  H56      1.0000 0.33350  0.52950  0.95680  Biso   1.000  H
  C51      1.0000 0.54180  0.56120  0.96390  Biso   1.000  C
  H57      1.0000 0.60270  0.57210  0.98720  Biso   1.000  H
  C52      1.0000 0.77000  0.55280  0.93350  Biso   1.000  C
  H58      1.0000 0.76820  0.58140  0.93500  Biso   1.000  H
  C53      1.0000 0.82930  0.48310  0.96410  Biso   1.000  C
  H59      1.0000 0.86490  0.46020  0.98530  Biso   1.000  H
  C54      1.0000 0.74210  0.48930  0.90070  Biso   1.000  C
  H60      1.0000 0.71140  0.46730  0.87180  Biso   1.000  H
  C55      1.0000 0.64870  0.57280  0.67140  Biso   1.000  C
  H61      1.0000 0.58970  0.58670  0.65510  Biso   1.000  H
  C56      1.0000 0.76800  0.53830  0.73910  Biso   1.000  C
  H62      1.0000 0.80240  0.52090  0.77690  Biso   1.000  H
  C57      1.0000 0.79900  0.55340  0.67870  Biso   1.000  C
  H63      1.0000 0.86250  0.55220  0.67120  Biso   1.000  H
  C58      1.0000 0.41730  0.54920  0.68750  Biso   1.000  C
  H64      1.0000 0.42180  0.52110  0.67930  Biso   1.000  H
  C59      1.0000 0.36950  0.61110  0.67450  Biso   1.000  C
  H65      1.0000 0.33610  0.63520  0.65720  Biso   1.000  H
  C60      1.0000 0.44910  0.60740  0.73440  Biso   1.000  C
  H66      1.0000 0.47870  0.62880  0.76550  Biso   1.000  H
  C61      1.0000 0.41800  0.57670  0.48990  Biso   1.000  C
  H67      1.0000 0.43840  0.60020  0.51860  Biso   1.000  H
  C62      1.0000 0.37000  0.57200  0.46800  Biso   1.000  C
  C63      1.0000 0.07800  0.51290  0.44480  Biso   1.000  C
  H68      1.0000 0.09030  0.48830  0.47190  Biso   1.000  H
  C64      1.0000 0.44600  0.51680  0.43700  Biso   1.000  C
  H69      1.0000 0.48190  0.49710  0.41760  Biso   1.000  H
  C65      1.0000 0.41000  0.52950  0.39000  Biso   1.000  C
  C66      1.0000 0.00200  0.51850  0.38030  Biso   1.000  C
  H70      1.0000 0.95390  0.50040  0.35520  Biso   1.000  H
  C67      1.0000 0.37100  0.51280  0.47100  Biso   1.000  C
  H71      1.0000 0.34650  0.48730  0.48050  Biso   1.000  H
  C68      1.0000 0.32300  0.52500  0.42800  Biso   1.000  C
  C69      1.0000 0.09410  0.57450  0.41580  Biso   1.000  C
  H72      1.0000 0.11560  0.60150  0.41630  Biso   1.000  H
  C70      1.0000 0.06840  0.58610  0.60430  Biso   1.000  C
  H73      1.0000 0.03870  0.59400  0.55460  Biso   1.000  H
  C71      1.0000 0.09230  0.57900  0.72580  Biso   1.000  C
  H74      1.0000 0.08680  0.58020  0.77630  Biso   1.000  H
  C72      1.0000 0.16470  0.56020  0.69870  Biso   1.000  C
  H75      1.0000 0.21730  0.54620  0.72910  Biso   1.000  H
  N29      1.0000 0.51600  0.54680  0.89440  Biso   1.000  N
  N30      1.0000 0.46420  0.55750  0.99600  Biso   1.000  N
  H76      1.0000 0.46140  0.56640  0.04050  Biso   1.000  H
  N31      1.0000 0.71040  0.52610  0.88740  Biso   1.000  N
  N32      1.0000 0.83730  0.52450  0.97940  Biso   1.000  N
  H77      1.0000 0.88260  0.53350  0.01660  Biso   1.000  H
  N33      1.0000 0.67360  0.55360  0.73420  Biso   1.000  N
  N34      1.0000 0.71880  0.57080  0.63110  Biso   1.000  N
  H78      1.0000 0.71380  0.57880  0.58480  Biso   1.000  H
  N35      1.0000 0.47850  0.56730  0.74150  Biso   1.000  N
  N36      1.0000 0.34770  0.57160  0.64390  Biso   1.000  N
  N37      1.0000 0.33440  0.54930  0.49100  Biso   1.000  N
  N38      1.0000 0.45470  0.55970  0.43960  Biso   1.000  N
  H79      1.0000 0.48240  0.57340  0.40960  Biso   1.000  H
  N39      1.0000 0.13150  0.54740  0.46320  Biso   1.000  N
  N40      1.0000 0.01940  0.55870  0.36510  Biso   1.000  N
  H80      1.0000 0.98550  0.57220  0.32690  Biso   1.000  H
  N41      1.0000 0.14980  0.56490  0.62050  Biso   1.000  N
  N42      1.0000 0.03070  0.59550  0.66430  Biso   1.000  N
  H81      1.0000 0.97810  0.60930  0.66350  Biso   1.000  H
  Cu13     1.0000 0.40698  0.04596  0.18701  Biso   1.000  Cu
  Cu14     1.0000 0.76045  0.05491  0.44550  Biso   1.000  Cu
  C73      1.0000 0.57710  0.03240  0.11940  Biso   1.000  C
  H82      1.0000 0.61320  0.02120  0.16470  Biso   1.000  H
  C74      1.0000 0.60720  0.03790  0.05260  Biso   1.000  C
  H83      1.0000 0.66650  0.02950  0.04320  Biso   1.000  H
  C75      1.0000 0.45820  0.06120  0.03610  Biso   1.000  C
  H84      1.0000 0.39730  0.07210  0.01280  Biso   1.000  H
  C76      1.0000 0.23000  0.05280  0.06650  Biso   1.000  C
  H85      1.0000 0.23180  0.08140  0.06500  Biso   1.000  H
  C77      1.0000 0.17070  0.98310  0.03590  Biso   1.000  C
  H86      1.0000 0.13510  0.96020  0.01470  Biso   1.000  H
  C78      1.0000 0.25790  0.98930  0.09930  Biso   1.000  C
  H87      1.0000 0.28860  0.96730  0.12820  Biso   1.000  H
  C79      1.0000 0.35130  0.07280  0.32860  Biso   1.000  C
  H88      1.0000 0.41030  0.08670  0.34490  Biso   1.000  H
  C80      1.0000 0.23200  0.03830  0.26090  Biso   1.000  C
  H89      1.0000 0.19760  0.02090  0.22310  Biso   1.000  H
  C81      1.0000 0.20100  0.05340  0.32130  Biso   1.000  C
  H90      1.0000 0.13750  0.05220  0.32880  Biso   1.000  H
  C82      1.0000 0.58270  0.04920  0.31250  Biso   1.000  C
  H91      1.0000 0.57820  0.02110  0.32070  Biso   1.000  H
  C83      1.0000 0.63050  0.11110  0.32550  Biso   1.000  C
  H92      1.0000 0.66390  0.13520  0.34280  Biso   1.000  H
  C84      1.0000 0.55090  0.10740  0.26560  Biso   1.000  C
  H93      1.0000 0.52130  0.12880  0.23450  Biso   1.000  H
  C85      1.0000 0.58200  0.07670  0.51010  Biso   1.000  C
  H94      1.0000 0.56160  0.10020  0.48140  Biso   1.000  H
  C86      1.0000 0.63000  0.07200  0.53200  Biso   1.000  C
  C87      1.0000 0.92200  0.01290  0.55520  Biso   1.000  C
  H95      1.0000 0.90970  0.98830  0.52810  Biso   1.000  H
  C88      1.0000 0.55400  0.01680  0.56300  Biso   1.000  C
  H96      1.0000 0.51810  0.99710  0.58240  Biso   1.000  H
  C89      1.0000 0.59000  0.02950  0.61000  Biso   1.000  C
  C90      1.0000 0.99800  0.01850  0.61970  Biso   1.000  C
  H97      1.0000 0.04610  0.00040  0.64480  Biso   1.000  H
  C91      1.0000 0.62900  0.01280  0.52900  Biso   1.000  C
  H98      1.0000 0.65350  0.98730  0.51950  Biso   1.000  H
  C92      1.0000 0.67700  0.02500  0.57200  Biso   1.000  C
  C93      1.0000 0.90590  0.07450  0.58420  Biso   1.000  C
  H99      1.0000 0.88440  0.10150  0.58370  Biso   1.000  H
  C94      1.0000 0.93160  0.08610  0.39570  Biso   1.000  C
  H100     1.0000 0.96130  0.09400  0.44540  Biso   1.000  H
  C95      1.0000 0.90770  0.07900  0.27420  Biso   1.000  C
  H101     1.0000 0.91320  0.08020  0.22370  Biso   1.000  H
  C96      1.0000 0.83530  0.06020  0.30130  Biso   1.000  C
  H102     1.0000 0.78270  0.04620  0.27090  Biso   1.000  H
  N43      1.0000 0.48400  0.04680  0.10560  Biso   1.000  N
  N44      1.0000 0.53580  0.05750  0.00400  Biso   1.000  N
  H103     1.0000 0.53860  0.06640  0.95950  Biso   1.000  H
  N45      1.0000 0.28960  0.02610  0.11260  Biso   1.000  N
  N46      1.0000 0.16270  0.02450  0.02060  Biso   1.000  N
  H104     1.0000 0.11740  0.03350  0.98340  Biso   1.000  H
  N47      1.0000 0.32640  0.05360  0.26580  Biso   1.000  N
  N48      1.0000 0.28120  0.07080  0.36890  Biso   1.000  N
  H105     1.0000 0.28620  0.07880  0.41520  Biso   1.000  H
  N49      1.0000 0.52150  0.06730  0.25850  Biso   1.000  N
  N50      1.0000 0.65230  0.07160  0.35610  Biso   1.000  N
  N51      1.0000 0.66560  0.04930  0.50900  Biso   1.000  N
  N52      1.0000 0.54530  0.05970  0.56040  Biso   1.000  N
  H106     1.0000 0.51760  0.07340  0.59040  Biso   1.000  H
  N53      1.0000 0.86850  0.04740  0.53680  Biso   1.000  N
  N54      1.0000 0.98060  0.05870  0.63490  Biso   1.000  N
  H107     1.0000 0.01450  0.07220  0.67310  Biso   1.000  H
  N55      1.0000 0.85020  0.06490  0.37950  Biso   1.000  N
  N56      1.0000 0.96930  0.09550  0.33570  Biso   1.000  N
  H108     1.0000 0.02190  0.10930  0.33650  Biso   1.000  H
