data_image0
_cell_length_a       19.4754
_cell_length_b       7.2595
_cell_length_c       22.789
_cell_angle_alpha    90
_cell_angle_beta     90
_cell_angle_gamma    90

_symmetry_space_group_name_H-M    "P 1"
_symmetry_int_tables_number       1

loop_
  _symmetry_equiv_pos_as_xyz
  'x, y, z'

loop_
  _atom_site_label
  _atom_site_occupancy
  _atom_site_fract_x
  _atom_site_fract_y
  _atom_site_fract_z
  _atom_site_thermal_displace_type
  _atom_site_B_iso_or_equiv
  _atom_site_type_symbol
  Cu1      1.0000 0.55183  0.18870  0.39825  Biso   1.000  Cu
  N1       1.0000 0.49110  0.09690  0.33330  Biso   1.000  N
  N2       1.0000 0.64120  0.20080  0.35400  Biso   1.000  N
  N3       1.0000 0.60960  0.29560  0.46130  Biso   1.000  N
  O1       1.0000 0.47120  0.17910  0.44620  Biso   1.000  O
  O2       1.0000 0.36240  0.08480  0.44790  Biso   1.000  O
  C1       1.0000 0.41740  0.10800  0.42060  Biso   1.000  C
  C2       1.0000 0.41900  0.11200  0.35400  Biso   1.000  C
  H1       1.0000 0.40170  0.23200  0.34180  Biso   1.000  H
  C3       1.0000 0.37500  0.96400  0.32500  Biso   1.000  C
  H2       1.0000 0.40350  0.86020  0.31500  Biso   1.000  H
  H3       1.0000 0.35500  0.01360  0.28990  Biso   1.000  H
  H4       1.0000 0.33960  0.92570  0.35140  Biso   1.000  H
  C4       1.0000 0.42900  0.01900  0.36200  Biso   1.000  C
  H5       1.0000 0.43780  0.88780  0.36870  Biso   1.000  H
  C5       1.0000 0.36600  0.03500  0.32200  Biso   1.000  C
  H6       1.0000 0.34490  0.15310  0.32770  Biso   1.000  H
  H7       1.0000 0.33370  0.93970  0.33220  Biso   1.000  H
  H8       1.0000 0.37960  0.02120  0.28200  Biso   1.000  H
  C6       1.0000 0.65460  0.14600  0.29820  Biso   1.000  C
  H9       1.0000 0.61880  0.10850  0.27390  Biso   1.000  H
  C7       1.0000 0.71890  0.14500  0.27820  Biso   1.000  C
  H10      1.0000 0.72670  0.11340  0.23920  Biso   1.000  H
  C8       1.0000 0.77280  0.18800  0.31240  Biso   1.000  C
  H11      1.0000 0.81730  0.18040  0.29780  Biso   1.000  H
  C9       1.0000 0.76150  0.24200  0.36870  Biso   1.000  C
  H12      1.0000 0.79810  0.27190  0.39300  Biso   1.000  H
  C10      1.0000 0.69580  0.25100  0.38900  Biso   1.000  C
  C11      1.0000 0.67750  0.30700  0.44790  Biso   1.000  C
  C12      1.0000 0.72220  0.38100  0.48780  Biso   1.000  C
  H13      1.0000 0.76850  0.39120  0.47830  Biso   1.000  H
  C13      1.0000 0.69940  0.44100  0.54220  Biso   1.000  C
  H14      1.0000 0.72990  0.49200  0.56920  Biso   1.000  H
  C14      1.0000 0.62880  0.42400  0.55560  Biso   1.000  C
  H15      1.0000 0.61140  0.45790  0.59200  Biso   1.000  H
  C15      1.0000 0.58750  0.35500  0.51260  Biso   1.000  C
  H16      1.0000 0.54050  0.35020  0.51990  Biso   1.000  H
  Cu2      1.0000 0.94817  0.81130  0.89825  Biso   1.000  Cu
  N4       1.0000 0.00890  0.90310  0.83330  Biso   1.000  N
  N5       1.0000 0.85880  0.79920  0.85400  Biso   1.000  N
  N6       1.0000 0.89040  0.70440  0.96130  Biso   1.000  N
  O3       1.0000 0.02880  0.82090  0.94620  Biso   1.000  O
  O4       1.0000 0.13760  0.91520  0.94790  Biso   1.000  O
  C16      1.0000 0.08260  0.89200  0.92060  Biso   1.000  C
  C17      1.0000 0.08100  0.88800  0.85400  Biso   1.000  C
  H17      1.0000 0.09830  0.76800  0.84180  Biso   1.000  H
  C18      1.0000 0.12500  0.03600  0.82500  Biso   1.000  C
  H18      1.0000 0.09650  0.13980  0.81500  Biso   1.000  H
  H19      1.0000 0.14500  0.98640  0.78990  Biso   1.000  H
  H20      1.0000 0.16040  0.07430  0.85140  Biso   1.000  H
  C19      1.0000 0.07100  0.98100  0.86200  Biso   1.000  C
  H21      1.0000 0.06220  0.11220  0.86870  Biso   1.000  H
  C20      1.0000 0.13400  0.96500  0.82200  Biso   1.000  C
  H22      1.0000 0.15510  0.84690  0.82770  Biso   1.000  H
  H23      1.0000 0.16630  0.06030  0.83220  Biso   1.000  H
  H24      1.0000 0.12040  0.97880  0.78200  Biso   1.000  H
  C21      1.0000 0.84540  0.85400  0.79820  Biso   1.000  C
  H25      1.0000 0.88120  0.89150  0.77390  Biso   1.000  H
  C22      1.0000 0.78110  0.85500  0.77820  Biso   1.000  C
  H26      1.0000 0.77330  0.88660  0.73920  Biso   1.000  H
  C23      1.0000 0.72720  0.81200  0.81240  Biso   1.000  C
  H27      1.0000 0.68270  0.81960  0.79780  Biso   1.000  H
  C24      1.0000 0.73850  0.75800  0.86870  Biso   1.000  C
  H28      1.0000 0.70190  0.72810  0.89300  Biso   1.000  H
  C25      1.0000 0.80420  0.74900  0.88900  Biso   1.000  C
  C26      1.0000 0.82250  0.69300  0.94790  Biso   1.000  C
  C27      1.0000 0.77780  0.61900  0.98780  Biso   1.000  C
  H29      1.0000 0.73150  0.60880  0.97830  Biso   1.000  H
  C28      1.0000 0.80060  0.55900  0.04220  Biso   1.000  C
  H30      1.0000 0.77010  0.50800  0.06920  Biso   1.000  H
  C29      1.0000 0.87120  0.57600  0.05560  Biso   1.000  C
  H31      1.0000 0.88860  0.54210  0.09200  Biso   1.000  H
  C30      1.0000 0.91250  0.64500  0.01260  Biso   1.000  C
  H32      1.0000 0.95950  0.64980  0.01990  Biso   1.000  H
  Cu3      1.0000 0.44817  0.68870  0.10175  Biso   1.000  Cu
  N7       1.0000 0.50890  0.59690  0.16670  Biso   1.000  N
  N8       1.0000 0.35880  0.70080  0.14600  Biso   1.000  N
  N9       1.0000 0.39040  0.79560  0.03870  Biso   1.000  N
  O5       1.0000 0.52880  0.67910  0.05380  Biso   1.000  O
  O6       1.0000 0.63760  0.58480  0.05210  Biso   1.000  O
  C31      1.0000 0.58260  0.60800  0.07940  Biso   1.000  C
  C32      1.0000 0.58100  0.61200  0.14600  Biso   1.000  C
  H33      1.0000 0.59830  0.73200  0.15820  Biso   1.000  H
  C33      1.0000 0.62500  0.46400  0.17500  Biso   1.000  C
  H34      1.0000 0.59650  0.36020  0.18500  Biso   1.000  H
  H35      1.0000 0.64500  0.51360  0.21010  Biso   1.000  H
  H36      1.0000 0.66040  0.42570  0.14860  Biso   1.000  H
  C34      1.0000 0.57100  0.51900  0.13800  Biso   1.000  C
  H37      1.0000 0.56220  0.38780  0.13130  Biso   1.000  H
  C35      1.0000 0.63400  0.53500  0.17800  Biso   1.000  C
  H38      1.0000 0.65510  0.65310  0.17230  Biso   1.000  H
  H39      1.0000 0.66630  0.43970  0.16780  Biso   1.000  H
  H40      1.0000 0.62040  0.52120  0.21800  Biso   1.000  H
  C36      1.0000 0.34540  0.64600  0.20180  Biso   1.000  C
  H41      1.0000 0.38120  0.60850  0.22610  Biso   1.000  H
  C37      1.0000 0.28110  0.64500  0.22180  Biso   1.000  C
  H42      1.0000 0.27330  0.61340  0.26080  Biso   1.000  H
  C38      1.0000 0.22720  0.68800  0.18760  Biso   1.000  C
  H43      1.0000 0.18270  0.68040  0.20220  Biso   1.000  H
  C39      1.0000 0.23850  0.74200  0.13130  Biso   1.000  C
  H44      1.0000 0.20190  0.77190  0.10700  Biso   1.000  H
  C40      1.0000 0.30420  0.75100  0.11100  Biso   1.000  C
  C41      1.0000 0.32250  0.80700  0.05210  Biso   1.000  C
  C42      1.0000 0.27780  0.88100  0.01220  Biso   1.000  C
  H45      1.0000 0.23150  0.89120  0.02170  Biso   1.000  H
  C43      1.0000 0.30060  0.94100  0.95780  Biso   1.000  C
  H46      1.0000 0.27010  0.99200  0.93080  Biso   1.000  H
  C44      1.0000 0.37120  0.92400  0.94440  Biso   1.000  C
  H47      1.0000 0.38860  0.95790  0.90800  Biso   1.000  H
  C45      1.0000 0.41250  0.85500  0.98740  Biso   1.000  C
  H48      1.0000 0.45950  0.85020  0.98010  Biso   1.000  H
  Cu4      1.0000 0.05183  0.31130  0.60175  Biso   1.000  Cu
  N10      1.0000 0.99110  0.40310  0.66670  Biso   1.000  N
  N11      1.0000 0.14120  0.29920  0.64600  Biso   1.000  N
  N12      1.0000 0.10960  0.20440  0.53870  Biso   1.000  N
  O7       1.0000 0.97120  0.32090  0.55380  Biso   1.000  O
  O8       1.0000 0.86240  0.41520  0.55210  Biso   1.000  O
  C46      1.0000 0.91740  0.39200  0.57940  Biso   1.000  C
  C47      1.0000 0.91900  0.38800  0.64600  Biso   1.000  C
  H49      1.0000 0.90170  0.26800  0.65820  Biso   1.000  H
  C48      1.0000 0.87500  0.53600  0.67500  Biso   1.000  C
  H50      1.0000 0.90350  0.63980  0.68500  Biso   1.000  H
  H51      1.0000 0.85500  0.48640  0.71010  Biso   1.000  H
  H52      1.0000 0.83960  0.57430  0.64860  Biso   1.000  H
  C49      1.0000 0.92900  0.48100  0.63800  Biso   1.000  C
  H53      1.0000 0.93780  0.61220  0.63130  Biso   1.000  H
  C50      1.0000 0.86600  0.46500  0.67800  Biso   1.000  C
  H54      1.0000 0.84490  0.34690  0.67230  Biso   1.000  H
  H55      1.0000 0.83370  0.56030  0.66780  Biso   1.000  H
  H56      1.0000 0.87960  0.47880  0.71800  Biso   1.000  H
  C51      1.0000 0.15460  0.35400  0.70180  Biso   1.000  C
  H57      1.0000 0.11880  0.39150  0.72610  Biso   1.000  H
  C52      1.0000 0.21890  0.35500  0.72180  Biso   1.000  C
  H58      1.0000 0.22670  0.38660  0.76080  Biso   1.000  H
  C53      1.0000 0.27280  0.31200  0.68760  Biso   1.000  C
  H59      1.0000 0.31730  0.31960  0.70220  Biso   1.000  H
  C54      1.0000 0.26150  0.25800  0.63130  Biso   1.000  C
  H60      1.0000 0.29810  0.22810  0.60700  Biso   1.000  H
  C55      1.0000 0.19580  0.24900  0.61100  Biso   1.000  C
  C56      1.0000 0.17750  0.19300  0.55210  Biso   1.000  C
  C57      1.0000 0.22220  0.11900  0.51220  Biso   1.000  C
  H61      1.0000 0.26850  0.10880  0.52170  Biso   1.000  H
  C58      1.0000 0.19940  0.05900  0.45780  Biso   1.000  C
  H62      1.0000 0.22990  0.00800  0.43080  Biso   1.000  H
  C59      1.0000 0.12880  0.07600  0.44440  Biso   1.000  C
  H63      1.0000 0.11140  0.04210  0.40800  Biso   1.000  H
  C60      1.0000 0.08750  0.14500  0.48740  Biso   1.000  C
  H64      1.0000 0.04050  0.14980  0.48010  Biso   1.000  H
  Cu5      1.0000 0.44817  0.81130  0.60175  Biso   1.000  Cu
  N13      1.0000 0.50890  0.90310  0.66670  Biso   1.000  N
  N14      1.0000 0.35880  0.79920  0.64600  Biso   1.000  N
  N15      1.0000 0.39040  0.70440  0.53870  Biso   1.000  N
  O9       1.0000 0.52880  0.82090  0.55380  Biso   1.000  O
  O10      1.0000 0.63760  0.91520  0.55210  Biso   1.000  O
  C61      1.0000 0.58260  0.89200  0.57940  Biso   1.000  C
  C62      1.0000 0.58100  0.88800  0.64600  Biso   1.000  C
  H65      1.0000 0.59830  0.76800  0.65820  Biso   1.000  H
  C63      1.0000 0.62500  0.03600  0.67500  Biso   1.000  C
  H66      1.0000 0.59650  0.13980  0.68500  Biso   1.000  H
  H67      1.0000 0.64500  0.98640  0.71010  Biso   1.000  H
  H68      1.0000 0.66040  0.07430  0.64860  Biso   1.000  H
  C64      1.0000 0.57100  0.98100  0.63800  Biso   1.000  C
  H69      1.0000 0.56220  0.11220  0.63130  Biso   1.000  H
  C65      1.0000 0.63400  0.96500  0.67800  Biso   1.000  C
  H70      1.0000 0.65510  0.84690  0.67230  Biso   1.000  H
  H71      1.0000 0.66630  0.06030  0.66780  Biso   1.000  H
  H72      1.0000 0.62040  0.97880  0.71800  Biso   1.000  H
  C66      1.0000 0.34540  0.85400  0.70180  Biso   1.000  C
  H73      1.0000 0.38120  0.89150  0.72610  Biso   1.000  H
  C67      1.0000 0.28110  0.85500  0.72180  Biso   1.000  C
  H74      1.0000 0.27330  0.88660  0.76080  Biso   1.000  H
  C68      1.0000 0.22720  0.81200  0.68760  Biso   1.000  C
  H75      1.0000 0.18270  0.81960  0.70220  Biso   1.000  H
  C69      1.0000 0.23850  0.75800  0.63130  Biso   1.000  C
  H76      1.0000 0.20190  0.72810  0.60700  Biso   1.000  H
  C70      1.0000 0.30420  0.74900  0.61100  Biso   1.000  C
  C71      1.0000 0.32250  0.69300  0.55210  Biso   1.000  C
  C72      1.0000 0.27780  0.61900  0.51220  Biso   1.000  C
  H77      1.0000 0.23150  0.60880  0.52170  Biso   1.000  H
  C73      1.0000 0.30060  0.55900  0.45780  Biso   1.000  C
  H78      1.0000 0.27010  0.50800  0.43080  Biso   1.000  H
  C74      1.0000 0.37120  0.57600  0.44440  Biso   1.000  C
  H79      1.0000 0.38860  0.54210  0.40800  Biso   1.000  H
  C75      1.0000 0.41250  0.64500  0.48740  Biso   1.000  C
  H80      1.0000 0.45950  0.64980  0.48010  Biso   1.000  H
  Cu6      1.0000 0.05183  0.18870  0.10175  Biso   1.000  Cu
  N16      1.0000 0.99110  0.09690  0.16670  Biso   1.000  N
  N17      1.0000 0.14120  0.20080  0.14600  Biso   1.000  N
  N18      1.0000 0.10960  0.29560  0.03870  Biso   1.000  N
  O11      1.0000 0.97120  0.17910  0.05380  Biso   1.000  O
  O12      1.0000 0.86240  0.08480  0.05210  Biso   1.000  O
  C76      1.0000 0.91740  0.10800  0.07940  Biso   1.000  C
  C77      1.0000 0.91900  0.11200  0.14600  Biso   1.000  C
  H81      1.0000 0.90170  0.23200  0.15820  Biso   1.000  H
  C78      1.0000 0.87500  0.96400  0.17500  Biso   1.000  C
  H82      1.0000 0.90350  0.86020  0.18500  Biso   1.000  H
  H83      1.0000 0.85500  0.01360  0.21010  Biso   1.000  H
  H84      1.0000 0.83960  0.92570  0.14860  Biso   1.000  H
  C79      1.0000 0.92900  0.01900  0.13800  Biso   1.000  C
  H85      1.0000 0.93780  0.88780  0.13130  Biso   1.000  H
  C80      1.0000 0.86600  0.03500  0.17800  Biso   1.000  C
  H86      1.0000 0.84490  0.15310  0.17230  Biso   1.000  H
  H87      1.0000 0.83370  0.93970  0.16780  Biso   1.000  H
  H88      1.0000 0.87960  0.02120  0.21800  Biso   1.000  H
  C81      1.0000 0.15460  0.14600  0.20180  Biso   1.000  C
  H89      1.0000 0.11880  0.10850  0.22610  Biso   1.000  H
  C82      1.0000 0.21890  0.14500  0.22180  Biso   1.000  C
  H90      1.0000 0.22670  0.11340  0.26080  Biso   1.000  H
  C83      1.0000 0.27280  0.18800  0.18760  Biso   1.000  C
  H91      1.0000 0.31730  0.18040  0.20220  Biso   1.000  H
  C84      1.0000 0.26150  0.24200  0.13130  Biso   1.000  C
  H92      1.0000 0.29810  0.27190  0.10700  Biso   1.000  H
  C85      1.0000 0.19580  0.25100  0.11100  Biso   1.000  C
  C86      1.0000 0.17750  0.30700  0.05210  Biso   1.000  C
  C87      1.0000 0.22220  0.38100  0.01220  Biso   1.000  C
  H93      1.0000 0.26850  0.39120  0.02170  Biso   1.000  H
  C88      1.0000 0.19940  0.44100  0.95780  Biso   1.000  C
  H94      1.0000 0.22990  0.49200  0.93080  Biso   1.000  H
  C89      1.0000 0.12880  0.42400  0.94440  Biso   1.000  C
  H95      1.0000 0.11140  0.45790  0.90800  Biso   1.000  H
  C90      1.0000 0.08750  0.35500  0.98740  Biso   1.000  C
  H96      1.0000 0.04050  0.35020  0.98010  Biso   1.000  H
  Cu7      1.0000 0.55183  0.31130  0.89825  Biso   1.000  Cu
  N19      1.0000 0.49110  0.40310  0.83330  Biso   1.000  N
  N20      1.0000 0.64120  0.29920  0.85400  Biso   1.000  N
  N21      1.0000 0.60960  0.20440  0.96130  Biso   1.000  N
  O13      1.0000 0.47120  0.32090  0.94620  Biso   1.000  O
  O14      1.0000 0.36240  0.41520  0.94790  Biso   1.000  O
  C91      1.0000 0.41740  0.39200  0.92060  Biso   1.000  C
  C92      1.0000 0.41900  0.38800  0.85400  Biso   1.000  C
  H97      1.0000 0.40170  0.26800  0.84180  Biso   1.000  H
  C93      1.0000 0.37500  0.53600  0.82500  Biso   1.000  C
  H98      1.0000 0.40350  0.63980  0.81500  Biso   1.000  H
  H99      1.0000 0.35500  0.48640  0.78990  Biso   1.000  H
  H100     1.0000 0.33960  0.57430  0.85140  Biso   1.000  H
  C94      1.0000 0.42900  0.48100  0.86200  Biso   1.000  C
  H101     1.0000 0.43780  0.61220  0.86870  Biso   1.000  H
  C95      1.0000 0.36600  0.46500  0.82200  Biso   1.000  C
  H102     1.0000 0.34490  0.34690  0.82770  Biso   1.000  H
  H103     1.0000 0.33370  0.56030  0.83220  Biso   1.000  H
  H104     1.0000 0.37960  0.47880  0.78200  Biso   1.000  H
  C96      1.0000 0.65460  0.35400  0.79820  Biso   1.000  C
  H105     1.0000 0.61880  0.39150  0.77390  Biso   1.000  H
  C97      1.0000 0.71890  0.35500  0.77820  Biso   1.000  C
  H106     1.0000 0.72670  0.38660  0.73920  Biso   1.000  H
  C98      1.0000 0.77280  0.31200  0.81240  Biso   1.000  C
  H107     1.0000 0.81730  0.31960  0.79780  Biso   1.000  H
  C99      1.0000 0.76150  0.25800  0.86870  Biso   1.000  C
  H108     1.0000 0.79810  0.22810  0.89300  Biso   1.000  H
  C100     1.0000 0.69580  0.24900  0.88900  Biso   1.000  C
  C101     1.0000 0.67750  0.19300  0.94790  Biso   1.000  C
  C102     1.0000 0.72220  0.11900  0.98780  Biso   1.000  C
  H109     1.0000 0.76850  0.10880  0.97830  Biso   1.000  H
  C103     1.0000 0.69940  0.05900  0.04220  Biso   1.000  C
  H110     1.0000 0.72990  0.00800  0.06920  Biso   1.000  H
  C104     1.0000 0.62880  0.07600  0.05560  Biso   1.000  C
  H111     1.0000 0.61140  0.04210  0.09200  Biso   1.000  H
  C105     1.0000 0.58750  0.14500  0.01260  Biso   1.000  C
  H112     1.0000 0.54050  0.14980  0.01990  Biso   1.000  H
  Cu8      1.0000 0.94817  0.68870  0.39825  Biso   1.000  Cu
  N22      1.0000 0.00890  0.59690  0.33330  Biso   1.000  N
  N23      1.0000 0.85880  0.70080  0.35400  Biso   1.000  N
  N24      1.0000 0.89040  0.79560  0.46130  Biso   1.000  N
  O15      1.0000 0.02880  0.67910  0.44620  Biso   1.000  O
  O16      1.0000 0.13760  0.58480  0.44790  Biso   1.000  O
  C106     1.0000 0.08260  0.60800  0.42060  Biso   1.000  C
  C107     1.0000 0.08100  0.61200  0.35400  Biso   1.000  C
  H113     1.0000 0.09830  0.73200  0.34180  Biso   1.000  H
  C108     1.0000 0.12500  0.46400  0.32500  Biso   1.000  C
  H114     1.0000 0.09650  0.36020  0.31500  Biso   1.000  H
  H115     1.0000 0.14500  0.51360  0.28990  Biso   1.000  H
  H116     1.0000 0.16040  0.42570  0.35140  Biso   1.000  H
  C109     1.0000 0.07100  0.51900  0.36200  Biso   1.000  C
  H117     1.0000 0.06220  0.38780  0.36870  Biso   1.000  H
  C110     1.0000 0.13400  0.53500  0.32200  Biso   1.000  C
  H118     1.0000 0.15510  0.65310  0.32770  Biso   1.000  H
  H119     1.0000 0.16630  0.43970  0.33220  Biso   1.000  H
  H120     1.0000 0.12040  0.52120  0.28200  Biso   1.000  H
  C111     1.0000 0.84540  0.64600  0.29820  Biso   1.000  C
  H121     1.0000 0.88120  0.60850  0.27390  Biso   1.000  H
  C112     1.0000 0.78110  0.64500  0.27820  Biso   1.000  C
  H122     1.0000 0.77330  0.61340  0.23920  Biso   1.000  H
  C113     1.0000 0.72720  0.68800  0.31240  Biso   1.000  C
  H123     1.0000 0.68270  0.68040  0.29780  Biso   1.000  H
  C114     1.0000 0.73850  0.74200  0.36870  Biso   1.000  C
  H124     1.0000 0.70190  0.77190  0.39300  Biso   1.000  H
  C115     1.0000 0.80420  0.75100  0.38900  Biso   1.000  C
  C116     1.0000 0.82250  0.80700  0.44790  Biso   1.000  C
  C117     1.0000 0.77780  0.88100  0.48780  Biso   1.000  C
  H125     1.0000 0.73150  0.89120  0.47830  Biso   1.000  H
  C118     1.0000 0.80060  0.94100  0.54220  Biso   1.000  C
  H126     1.0000 0.77010  0.99200  0.56920  Biso   1.000  H
  C119     1.0000 0.87120  0.92400  0.55560  Biso   1.000  C
  H127     1.0000 0.88860  0.95790  0.59200  Biso   1.000  H
  C120     1.0000 0.91250  0.85500  0.51260  Biso   1.000  C
  H128     1.0000 0.95950  0.85020  0.51990  Biso   1.000  H
