data_image0
_cell_length_a       15.532
_cell_length_b       23.552
_cell_length_c       7.416
_cell_angle_alpha    90
_cell_angle_beta     110.191
_cell_angle_gamma    90

_symmetry_space_group_name_H-M    "P 1"
_symmetry_int_tables_number       1

loop_
  _symmetry_equiv_pos_as_xyz
  'x, y, z'

loop_
  _atom_site_label
  _atom_site_occupancy
  _atom_site_fract_x
  _atom_site_fract_y
  _atom_site_fract_z
  _atom_site_thermal_displace_type
  _atom_site_B_iso_or_equiv
  _atom_site_type_symbol
  O1       1.0000 0.05190  0.16657  0.01260  Biso   1.000  O
  O2       1.0000 0.13140  0.19236  0.30760  Biso   1.000  O
  N1       1.0000 0.08559  0.05591  0.37680  Biso   1.000  N
  N2       1.0000 0.12680  0.19140  0.74100  Biso   1.000  N
  H1       1.0000 0.13100  0.19130  0.62840  Biso   1.000  H
  H2       1.0000 0.08410  0.17240  0.76240  Biso   1.000  H
  C1       1.0000 0.11880  0.19170  0.13130  Biso   1.000  C
  C2       1.0000 0.18650  0.22182  0.06090  Biso   1.000  C
  C3       1.0000 0.18080  0.21838  0.86920  Biso   1.000  C
  C4       1.0000 0.25540  0.25362  0.19010  Biso   1.000  C
  H3       1.0000 0.25880  0.25620  0.31750  Biso   1.000  H
  C5       1.0000 0.17340  0.05790  0.49800  Biso   1.000  C
  H4       1.0000 0.20000  0.09290  0.54240  Biso   1.000  H
  C6       1.0000 0.22430  0.00900  0.55720  Biso   1.000  C
  H5       1.0000 0.28520  0.01130  0.63770  Biso   1.000  H
  C7       1.0000 0.18620  0.95890  0.49900  Biso   1.000  C
  H6       1.0000 0.21960  0.92570  0.54120  Biso   1.000  H
  C8       1.0000 0.09780  0.95632  0.37690  Biso   1.000  C
  H7       1.0000 0.07060  0.92130  0.33450  Biso   1.000  H
  C9       1.0000 0.04800  0.00610  0.31560  Biso   1.000  C
  O3       1.0000 0.94810  0.16657  0.48740  Biso   1.000  O
  O4       1.0000 0.86860  0.19236  0.19240  Biso   1.000  O
  N3       1.0000 0.91441  0.05591  0.12320  Biso   1.000  N
  N4       1.0000 0.87320  0.19140  0.75900  Biso   1.000  N
  H8       1.0000 0.86900  0.19130  0.87160  Biso   1.000  H
  H9       1.0000 0.91590  0.17240  0.73760  Biso   1.000  H
  C10      1.0000 0.88120  0.19170  0.36870  Biso   1.000  C
  C11      1.0000 0.81350  0.22182  0.43910  Biso   1.000  C
  C12      1.0000 0.81920  0.21838  0.63080  Biso   1.000  C
  C13      1.0000 0.74460  0.25362  0.30990  Biso   1.000  C
  H10      1.0000 0.74120  0.25620  0.18250  Biso   1.000  H
  C14      1.0000 0.82660  0.05790  0.00200  Biso   1.000  C
  H11      1.0000 0.80000  0.09290  0.95760  Biso   1.000  H
  C15      1.0000 0.77570  0.00900  0.94280  Biso   1.000  C
  H12      1.0000 0.71480  0.01130  0.86230  Biso   1.000  H
  C16      1.0000 0.81380  0.95890  0.00100  Biso   1.000  C
  H13      1.0000 0.78040  0.92570  0.95880  Biso   1.000  H
  C17      1.0000 0.90220  0.95632  0.12310  Biso   1.000  C
  H14      1.0000 0.92940  0.92130  0.16550  Biso   1.000  H
  C18      1.0000 0.95200  0.00610  0.18440  Biso   1.000  C
  O5       1.0000 0.44810  0.33343  0.98740  Biso   1.000  O
  O6       1.0000 0.36860  0.30764  0.69240  Biso   1.000  O
  N5       1.0000 0.41441  0.44409  0.62320  Biso   1.000  N
  N6       1.0000 0.37320  0.30860  0.25900  Biso   1.000  N
  H15      1.0000 0.36900  0.30870  0.37160  Biso   1.000  H
  H16      1.0000 0.41590  0.32760  0.23760  Biso   1.000  H
  C19      1.0000 0.38120  0.30830  0.86870  Biso   1.000  C
  C20      1.0000 0.31350  0.27818  0.93910  Biso   1.000  C
  C21      1.0000 0.31920  0.28162  0.13080  Biso   1.000  C
  C22      1.0000 0.24460  0.24638  0.80990  Biso   1.000  C
  H17      1.0000 0.24120  0.24380  0.68250  Biso   1.000  H
  C23      1.0000 0.32660  0.44210  0.50200  Biso   1.000  C
  H18      1.0000 0.30000  0.40710  0.45760  Biso   1.000  H
  C24      1.0000 0.27570  0.49100  0.44280  Biso   1.000  C
  H19      1.0000 0.21480  0.48870  0.36230  Biso   1.000  H
  C25      1.0000 0.31380  0.54110  0.50100  Biso   1.000  C
  H20      1.0000 0.28040  0.57430  0.45880  Biso   1.000  H
  C26      1.0000 0.40220  0.54368  0.62310  Biso   1.000  C
  H21      1.0000 0.42940  0.57870  0.66550  Biso   1.000  H
  C27      1.0000 0.45200  0.49390  0.68440  Biso   1.000  C
  O7       1.0000 0.55190  0.33343  0.51260  Biso   1.000  O
  O8       1.0000 0.63140  0.30764  0.80760  Biso   1.000  O
  N7       1.0000 0.58559  0.44409  0.87680  Biso   1.000  N
  N8       1.0000 0.62680  0.30860  0.24100  Biso   1.000  N
  H22      1.0000 0.63100  0.30870  0.12840  Biso   1.000  H
  H23      1.0000 0.58410  0.32760  0.26240  Biso   1.000  H
  C28      1.0000 0.61880  0.30830  0.63130  Biso   1.000  C
  C29      1.0000 0.68650  0.27818  0.56090  Biso   1.000  C
  C30      1.0000 0.68080  0.28162  0.36920  Biso   1.000  C
  C31      1.0000 0.75540  0.24638  0.69010  Biso   1.000  C
  H24      1.0000 0.75880  0.24380  0.81750  Biso   1.000  H
  C32      1.0000 0.67340  0.44210  0.99800  Biso   1.000  C
  H25      1.0000 0.70000  0.40710  0.04240  Biso   1.000  H
  C33      1.0000 0.72430  0.49100  0.05720  Biso   1.000  C
  H26      1.0000 0.78520  0.48870  0.13770  Biso   1.000  H
  C34      1.0000 0.68620  0.54110  0.99900  Biso   1.000  C
  H27      1.0000 0.71960  0.57430  0.04120  Biso   1.000  H
  C35      1.0000 0.59780  0.54368  0.87690  Biso   1.000  C
  H28      1.0000 0.57060  0.57870  0.83450  Biso   1.000  H
  C36      1.0000 0.54800  0.49390  0.81560  Biso   1.000  C
  Cd1      1.0000 0.00000  0.13528  0.25000  Biso   1.000  Cd
  Cd2      1.0000 0.50000  0.36472  0.75000  Biso   1.000  Cd
  O9       1.0000 0.55190  0.66657  0.01260  Biso   1.000  O
  O10      1.0000 0.63140  0.69236  0.30760  Biso   1.000  O
  N9       1.0000 0.58559  0.55591  0.37680  Biso   1.000  N
  N10      1.0000 0.62680  0.69140  0.74100  Biso   1.000  N
  H29      1.0000 0.63100  0.69130  0.62840  Biso   1.000  H
  H30      1.0000 0.58410  0.67240  0.76240  Biso   1.000  H
  C37      1.0000 0.61880  0.69170  0.13130  Biso   1.000  C
  C38      1.0000 0.68650  0.72182  0.06090  Biso   1.000  C
  C39      1.0000 0.68080  0.71838  0.86920  Biso   1.000  C
  C40      1.0000 0.75540  0.75362  0.19010  Biso   1.000  C
  H31      1.0000 0.75880  0.75620  0.31750  Biso   1.000  H
  C41      1.0000 0.67340  0.55790  0.49800  Biso   1.000  C
  H32      1.0000 0.70000  0.59290  0.54240  Biso   1.000  H
  C42      1.0000 0.72430  0.50900  0.55720  Biso   1.000  C
  H33      1.0000 0.78520  0.51130  0.63770  Biso   1.000  H
  C43      1.0000 0.68620  0.45890  0.49900  Biso   1.000  C
  H34      1.0000 0.71960  0.42570  0.54120  Biso   1.000  H
  C44      1.0000 0.59780  0.45632  0.37690  Biso   1.000  C
  H35      1.0000 0.57060  0.42130  0.33450  Biso   1.000  H
  C45      1.0000 0.54800  0.50610  0.31560  Biso   1.000  C
  O11      1.0000 0.44810  0.66657  0.48740  Biso   1.000  O
  O12      1.0000 0.36860  0.69236  0.19240  Biso   1.000  O
  N11      1.0000 0.41441  0.55591  0.12320  Biso   1.000  N
  N12      1.0000 0.37320  0.69140  0.75900  Biso   1.000  N
  H36      1.0000 0.36900  0.69130  0.87160  Biso   1.000  H
  H37      1.0000 0.41590  0.67240  0.73760  Biso   1.000  H
  C46      1.0000 0.38120  0.69170  0.36870  Biso   1.000  C
  C47      1.0000 0.31350  0.72182  0.43910  Biso   1.000  C
  C48      1.0000 0.31920  0.71838  0.63080  Biso   1.000  C
  C49      1.0000 0.24460  0.75362  0.30990  Biso   1.000  C
  H38      1.0000 0.24120  0.75620  0.18250  Biso   1.000  H
  C50      1.0000 0.32660  0.55790  0.00200  Biso   1.000  C
  H39      1.0000 0.30000  0.59290  0.95760  Biso   1.000  H
  C51      1.0000 0.27570  0.50900  0.94280  Biso   1.000  C
  H40      1.0000 0.21480  0.51130  0.86230  Biso   1.000  H
  C52      1.0000 0.31380  0.45890  0.00100  Biso   1.000  C
  H41      1.0000 0.28040  0.42570  0.95880  Biso   1.000  H
  C53      1.0000 0.40220  0.45632  0.12310  Biso   1.000  C
  H42      1.0000 0.42940  0.42130  0.16550  Biso   1.000  H
  C54      1.0000 0.45200  0.50610  0.18440  Biso   1.000  C
  O13      1.0000 0.94810  0.83343  0.98740  Biso   1.000  O
  O14      1.0000 0.86860  0.80764  0.69240  Biso   1.000  O
  N13      1.0000 0.91441  0.94409  0.62320  Biso   1.000  N
  N14      1.0000 0.87320  0.80860  0.25900  Biso   1.000  N
  H43      1.0000 0.86900  0.80870  0.37160  Biso   1.000  H
  H44      1.0000 0.91590  0.82760  0.23760  Biso   1.000  H
  C55      1.0000 0.88120  0.80830  0.86870  Biso   1.000  C
  C56      1.0000 0.81350  0.77818  0.93910  Biso   1.000  C
  C57      1.0000 0.81920  0.78162  0.13080  Biso   1.000  C
  C58      1.0000 0.74460  0.74638  0.80990  Biso   1.000  C
  H45      1.0000 0.74120  0.74380  0.68250  Biso   1.000  H
  C59      1.0000 0.82660  0.94210  0.50200  Biso   1.000  C
  H46      1.0000 0.80000  0.90710  0.45760  Biso   1.000  H
  C60      1.0000 0.77570  0.99100  0.44280  Biso   1.000  C
  H47      1.0000 0.71480  0.98870  0.36230  Biso   1.000  H
  C61      1.0000 0.81380  0.04110  0.50100  Biso   1.000  C
  H48      1.0000 0.78040  0.07430  0.45880  Biso   1.000  H
  C62      1.0000 0.90220  0.04368  0.62310  Biso   1.000  C
  H49      1.0000 0.92940  0.07870  0.66550  Biso   1.000  H
  C63      1.0000 0.95200  0.99390  0.68440  Biso   1.000  C
  O15      1.0000 0.05190  0.83343  0.51260  Biso   1.000  O
  O16      1.0000 0.13140  0.80764  0.80760  Biso   1.000  O
  N15      1.0000 0.08559  0.94409  0.87680  Biso   1.000  N
  N16      1.0000 0.12680  0.80860  0.24100  Biso   1.000  N
  H50      1.0000 0.13100  0.80870  0.12840  Biso   1.000  H
  H51      1.0000 0.08410  0.82760  0.26240  Biso   1.000  H
  C64      1.0000 0.11880  0.80830  0.63130  Biso   1.000  C
  C65      1.0000 0.18650  0.77818  0.56090  Biso   1.000  C
  C66      1.0000 0.18080  0.78162  0.36920  Biso   1.000  C
  C67      1.0000 0.25540  0.74638  0.69010  Biso   1.000  C
  H52      1.0000 0.25880  0.74380  0.81750  Biso   1.000  H
  C68      1.0000 0.17340  0.94210  0.99800  Biso   1.000  C
  H53      1.0000 0.20000  0.90710  0.04240  Biso   1.000  H
  C69      1.0000 0.22430  0.99100  0.05720  Biso   1.000  C
  H54      1.0000 0.28520  0.98870  0.13770  Biso   1.000  H
  C70      1.0000 0.18620  0.04110  0.99900  Biso   1.000  C
  H55      1.0000 0.21960  0.07430  0.04120  Biso   1.000  H
  C71      1.0000 0.09780  0.04368  0.87690  Biso   1.000  C
  H56      1.0000 0.07060  0.07870  0.83450  Biso   1.000  H
  C72      1.0000 0.04800  0.99390  0.81560  Biso   1.000  C
  Cd3      1.0000 0.50000  0.63528  0.25000  Biso   1.000  Cd
  Cd4      1.0000 0.00000  0.86472  0.75000  Biso   1.000  Cd
