data_image0
_cell_length_a       11.6765
_cell_length_b       10.3852
_cell_length_c       15.0913
_cell_angle_alpha    90
_cell_angle_beta     107.074
_cell_angle_gamma    90

_symmetry_space_group_name_H-M    "P 1"
_symmetry_int_tables_number       1

loop_
  _symmetry_equiv_pos_as_xyz
  'x, y, z'

loop_
  _atom_site_label
  _atom_site_occupancy
  _atom_site_fract_x
  _atom_site_fract_y
  _atom_site_fract_z
  _atom_site_thermal_displace_type
  _atom_site_B_iso_or_equiv
  _atom_site_type_symbol
  Zn1      1.0000 0.54923  0.14328  0.57653  Biso   1.000  Zn
  Zn2      1.0000 0.13585  0.35638  0.27487  Biso   1.000  Zn
  N1       1.0000 0.46490  0.24690  0.46200  Biso   1.000  N
  C1       1.0000 0.34800  0.26120  0.42600  Biso   1.000  C
  H1       1.0000 0.29420  0.23420  0.45710  Biso   1.000  H
  N2       1.0000 0.31120  0.31680  0.34200  Biso   1.000  N
  C2       1.0000 0.41700  0.33900  0.32090  Biso   1.000  C
  C3       1.0000 0.44750  0.40390  0.24900  Biso   1.000  C
  N3       1.0000 0.56060  0.41280  0.25140  Biso   1.000  N
  C4       1.0000 0.64510  0.36320  0.32460  Biso   1.000  C
  H2       1.0000 0.72390  0.37000  0.32320  Biso   1.000  H
  N4       1.0000 0.62840  0.30540  0.39880  Biso   1.000  N
  C5       1.0000 0.51240  0.29610  0.39580  Biso   1.000  C
  S1       1.0000 0.33610  0.47240  0.15860  Biso   1.000  S
  C6       1.0000 0.42220  0.56750  0.10070  Biso   1.000  C
  H3       1.0000 0.36890  0.61060  0.04850  Biso   1.000  H
  H4       1.0000 0.46860  0.63010  0.14300  Biso   1.000  H
  H5       1.0000 0.47490  0.51220  0.07980  Biso   1.000  H
  N5       1.0000 0.56550  0.95050  0.58810  Biso   1.000  N
  C7       1.0000 0.59900  0.88860  0.66840  Biso   1.000  C
  H6       1.0000 0.62700  0.93170  0.72470  Biso   1.000  H
  N6       1.0000 0.58990  0.75830  0.66310  Biso   1.000  N
  C8       1.0000 0.54540  0.73460  0.57190  Biso   1.000  C
  N7       1.0000 0.51820  0.61920  0.53170  Biso   1.000  N
  C9       1.0000 0.47320  0.62820  0.44170  Biso   1.000  C
  H7       1.0000 0.44690  0.55100  0.41140  Biso   1.000  H
  N8       1.0000 0.45920  0.73290  0.38590  Biso   1.000  N
  C10      1.0000 0.48940  0.84440  0.42670  Biso   1.000  C
  C11      1.0000 0.53010  0.85300  0.52180  Biso   1.000  C
  S2       1.0000 0.47620  0.98330  0.35840  Biso   1.000  S
  C12      1.0000 0.40530  0.92150  0.24750  Biso   1.000  C
  H8       1.0000 0.39270  0.98970  0.20270  Biso   1.000  H
  H9       1.0000 0.45490  0.85640  0.23250  Biso   1.000  H
  H10      1.0000 0.32950  0.88470  0.24660  Biso   1.000  H
  N9       1.0000 0.11070  0.54660  0.26150  Biso   1.000  N
  C13      1.0000 0.08180  0.60970  0.18190  Biso   1.000  C
  H11      1.0000 0.05880  0.56630  0.12550  Biso   1.000  H
  N10      1.0000 0.08700  0.73670  0.18550  Biso   1.000  N
  C14      1.0000 0.12560  0.75960  0.27940  Biso   1.000  C
  N11      1.0000 0.14810  0.87720  0.31950  Biso   1.000  N
  C15      1.0000 0.18250  0.86720  0.41240  Biso   1.000  C
  H12      1.0000 0.19910  0.94470  0.44440  Biso   1.000  H
  N12      1.0000 0.19610  0.76280  0.46510  Biso   1.000  N
  C16      1.0000 0.17350  0.64890  0.42180  Biso   1.000  C
  C17      1.0000 0.13820  0.64410  0.32520  Biso   1.000  C
  S3       1.0000 0.18380  0.50910  0.48790  Biso   1.000  S
  C18      1.0000 0.25150  0.56060  0.60600  Biso   1.000  C
  H13      1.0000 0.26010  0.48790  0.64680  Biso   1.000  H
  H14      1.0000 0.32890  0.59700  0.61170  Biso   1.000  H
  H15      1.0000 0.20150  0.62410  0.62220  Biso   1.000  H
  Zn3      1.0000 0.04923  0.85672  0.07653  Biso   1.000  Zn
  Zn4      1.0000 0.63585  0.64362  0.77487  Biso   1.000  Zn
  N13      1.0000 0.96490  0.75310  0.96200  Biso   1.000  N
  C19      1.0000 0.84800  0.73880  0.92600  Biso   1.000  C
  H16      1.0000 0.79420  0.76580  0.95710  Biso   1.000  H
  N14      1.0000 0.81120  0.68320  0.84200  Biso   1.000  N
  C20      1.0000 0.91700  0.66100  0.82090  Biso   1.000  C
  C21      1.0000 0.94750  0.59610  0.74900  Biso   1.000  C
  N15      1.0000 0.06060  0.58720  0.75140  Biso   1.000  N
  C22      1.0000 0.14510  0.63680  0.82460  Biso   1.000  C
  H17      1.0000 0.22390  0.63000  0.82320  Biso   1.000  H
  N16      1.0000 0.12840  0.69460  0.89880  Biso   1.000  N
  C23      1.0000 0.01240  0.70390  0.89580  Biso   1.000  C
  S4       1.0000 0.83610  0.52760  0.65860  Biso   1.000  S
  C24      1.0000 0.92220  0.43250  0.60070  Biso   1.000  C
  H18      1.0000 0.86890  0.38940  0.54850  Biso   1.000  H
  H19      1.0000 0.96860  0.36990  0.64300  Biso   1.000  H
  H20      1.0000 0.97490  0.48780  0.57980  Biso   1.000  H
  N17      1.0000 0.06550  0.04950  0.08810  Biso   1.000  N
  C25      1.0000 0.09900  0.11140  0.16840  Biso   1.000  C
  H21      1.0000 0.12700  0.06830  0.22470  Biso   1.000  H
  N18      1.0000 0.08990  0.24170  0.16310  Biso   1.000  N
  C26      1.0000 0.04540  0.26540  0.07190  Biso   1.000  C
  N19      1.0000 0.01820  0.38080  0.03170  Biso   1.000  N
  C27      1.0000 0.97320  0.37180  0.94170  Biso   1.000  C
  H22      1.0000 0.94690  0.44900  0.91140  Biso   1.000  H
  N20      1.0000 0.95920  0.26710  0.88590  Biso   1.000  N
  C28      1.0000 0.98940  0.15560  0.92670  Biso   1.000  C
  C29      1.0000 0.03010  0.14700  0.02180  Biso   1.000  C
  S5       1.0000 0.97620  0.01670  0.85840  Biso   1.000  S
  C30      1.0000 0.90530  0.07850  0.74750  Biso   1.000  C
  H23      1.0000 0.89270  0.01030  0.70270  Biso   1.000  H
  H24      1.0000 0.95490  0.14360  0.73250  Biso   1.000  H
  H25      1.0000 0.82950  0.11530  0.74660  Biso   1.000  H
  N21      1.0000 0.61070  0.45340  0.76150  Biso   1.000  N
  C31      1.0000 0.58180  0.39030  0.68190  Biso   1.000  C
  H26      1.0000 0.55880  0.43370  0.62550  Biso   1.000  H
  N22      1.0000 0.58700  0.26330  0.68550  Biso   1.000  N
  C32      1.0000 0.62560  0.24040  0.77940  Biso   1.000  C
  N23      1.0000 0.64810  0.12280  0.81950  Biso   1.000  N
  C33      1.0000 0.68250  0.13280  0.91240  Biso   1.000  C
  H27      1.0000 0.69910  0.05530  0.94440  Biso   1.000  H
  N24      1.0000 0.69610  0.23720  0.96510  Biso   1.000  N
  C34      1.0000 0.67350  0.35110  0.92180  Biso   1.000  C
  C35      1.0000 0.63820  0.35590  0.82520  Biso   1.000  C
  S6       1.0000 0.68380  0.49090  0.98790  Biso   1.000  S
  C36      1.0000 0.75150  0.43940  0.10600  Biso   1.000  C
  H28      1.0000 0.76010  0.51210  0.14680  Biso   1.000  H
  H29      1.0000 0.82890  0.40300  0.11170  Biso   1.000  H
  H30      1.0000 0.70150  0.37590  0.12220  Biso   1.000  H
