data_image0
_cell_length_a       13.412
_cell_length_b       10.469
_cell_length_c       29.031
_cell_angle_alpha    90
_cell_angle_beta     100.999
_cell_angle_gamma    90

_symmetry_space_group_name_H-M    "P 1"
_symmetry_int_tables_number       1

loop_
  _symmetry_equiv_pos_as_xyz
  'x, y, z'

loop_
  _atom_site_label
  _atom_site_occupancy
  _atom_site_fract_x
  _atom_site_fract_y
  _atom_site_fract_z
  _atom_site_thermal_displace_type
  _atom_site_B_iso_or_equiv
  _atom_site_type_symbol
  N1       1.0000 0.90150  0.52750  0.50750  Biso   1.000  N
  C1       1.0000 0.83740  0.59410  0.47380  Biso   1.000  C
  N2       1.0000 0.10120  0.25960  0.51140  Biso   1.000  N
  C2       1.0000 0.71910  0.73520  0.39680  Biso   1.000  C
  O1       1.0000 0.18360  0.12460  0.57520  Biso   1.000  O
  C3       1.0000 0.14470  0.19550  0.47810  Biso   1.000  C
  C4       1.0000 0.97500  0.48090  0.58670  Biso   1.000  C
  O2       1.0000 0.85330  0.65450  0.56880  Biso   1.000  O
  C5       1.0000 0.20060  0.05030  0.40260  Biso   1.000  C
  C6       1.0000 0.21900  0.19060  0.40740  Biso   1.000  C
  C7       1.0000 0.12670  0.22210  0.55710  Biso   1.000  C
  C8       1.0000 0.12790  0.05190  0.47320  Biso   1.000  C
  H1       1.0000 0.09640  0.00930  0.49460  Biso   1.000  H
  C9       1.0000 0.77400  0.53630  0.43960  Biso   1.000  C
  H2       1.0000 0.76840  0.44790  0.44100  Biso   1.000  H
  C10      1.0000 0.15990  0.98090  0.43620  Biso   1.000  C
  H3       1.0000 0.15380  0.89250  0.43450  Biso   1.000  H
  C11      1.0000 0.18820  0.25820  0.44860  Biso   1.000  C
  H4       1.0000 0.20040  0.34530  0.45290  Biso   1.000  H
  C12      1.0000 0.90340  0.56710  0.55190  Biso   1.000  C
  C13      1.0000 0.78830  0.80570  0.43190  Biso   1.000  C
  H5       1.0000 0.79420  0.89400  0.43020  Biso   1.000  H
  C14      1.0000 0.65970  0.79930  0.36240  Biso   1.000  C
  H6       1.0000 0.66080  0.88800  0.36130  Biso   1.000  H
  C15      1.0000 0.84410  0.73830  0.46710  Biso   1.000  C
  H7       1.0000 0.89050  0.78320  0.48920  Biso   1.000  H
  C16      1.0000 0.71290  0.60190  0.40040  Biso   1.000  C
  C17      1.0000 0.27390  0.05920  0.33410  Biso   1.000  C
  C18      1.0000 0.58630  0.59540  0.32860  Biso   1.000  C
  C19      1.0000 0.07730  0.30540  0.58920  Biso   1.000  C
  C20      1.0000 0.22930  0.99010  0.36490  Biso   1.000  C
  H8       1.0000 0.21850  0.90290  0.36030  Biso   1.000  H
  C21      1.0000 0.26130  0.25840  0.37440  Biso   1.000  C
  H9       1.0000 0.27290  0.34580  0.37740  Biso   1.000  H
  C22      1.0000 0.52740  0.52980  0.29130  Biso   1.000  C
  H10      1.0000 0.53290  0.44130  0.29150  Biso   1.000  H
  C23      1.0000 0.33060  0.25790  0.30170  Biso   1.000  C
  H11      1.0000 0.34120  0.34550  0.30470  Biso   1.000  H
  C24      1.0000 0.99190  0.48760  0.63800  Biso   1.000  C
  H12      1.0000 0.96440  0.55030  0.65450  Biso   1.000  H
  C25      1.0000 0.52290  0.80040  0.28460  Biso   1.000  C
  H13      1.0000 0.52720  0.88800  0.28010  Biso   1.000  H
  C26      1.0000 0.28590  0.18860  0.33590  Biso   1.000  C
  C27      1.0000 0.30060  0.99540  0.28800  Biso   1.000  C
  H14      1.0000 0.28780  0.90880  0.28270  Biso   1.000  H
  C28      1.0000 0.46480  0.58090  0.25580  Biso   1.000  C
  H15      1.0000 0.42780  0.53060  0.23220  Biso   1.000  H
  C29      1.0000 0.64510  0.53360  0.36650  Biso   1.000  C
  H16      1.0000 0.63950  0.44560  0.36960  Biso   1.000  H
  C30      1.0000 0.35750  0.19110  0.26430  Biso   1.000  C
  H17      1.0000 0.38860  0.23790  0.24380  Biso   1.000  H
  C31      1.0000 0.05980  0.37940  0.66120  Biso   1.000  C
  H18      1.0000 0.06740  0.37240  0.69370  Biso   1.000  H
  C32      1.0000 0.34300  0.06580  0.25500  Biso   1.000  C
  H19      1.0000 0.35980  0.02800  0.22850  Biso   1.000  H
  C33      1.0000 0.59510  0.72780  0.32780  Biso   1.000  C
  C34      1.0000 0.10860  0.29500  0.64030  Biso   1.000  C
  H20      1.0000 0.15620  0.23710  0.65570  Biso   1.000  H
  N3       1.0000 0.01960  0.39500  0.56520  Biso   1.000  N
  C35      1.0000 0.45500  0.72560  0.25490  Biso   1.000  C
  H21      1.0000 0.40240  0.76400  0.23400  Biso   1.000  H
  N4       1.0000 0.09850  0.52750  0.49250  Biso   1.000  N
  C36      1.0000 0.16260  0.59410  0.52620  Biso   1.000  C
  N5       1.0000 0.89880  0.25960  0.48860  Biso   1.000  N
  C37      1.0000 0.28090  0.73520  0.60320  Biso   1.000  C
  O3       1.0000 0.81640  0.12460  0.42480  Biso   1.000  O
  C38      1.0000 0.85530  0.19550  0.52190  Biso   1.000  C
  C39      1.0000 0.02500  0.48090  0.41330  Biso   1.000  C
  O4       1.0000 0.14670  0.65450  0.43120  Biso   1.000  O
  C40      1.0000 0.79940  0.05030  0.59740  Biso   1.000  C
  C41      1.0000 0.78100  0.19060  0.59260  Biso   1.000  C
  C42      1.0000 0.87330  0.22210  0.44290  Biso   1.000  C
  C43      1.0000 0.87210  0.05190  0.52680  Biso   1.000  C
  H22      1.0000 0.90360  0.00930  0.50540  Biso   1.000  H
  C44      1.0000 0.22600  0.53630  0.56040  Biso   1.000  C
  H23      1.0000 0.23160  0.44790  0.55900  Biso   1.000  H
  C45      1.0000 0.84010  0.98090  0.56380  Biso   1.000  C
  H24      1.0000 0.84620  0.89250  0.56550  Biso   1.000  H
  C46      1.0000 0.81180  0.25820  0.55140  Biso   1.000  C
  H25      1.0000 0.79960  0.34530  0.54710  Biso   1.000  H
  C47      1.0000 0.09660  0.56710  0.44810  Biso   1.000  C
  C48      1.0000 0.21170  0.80570  0.56810  Biso   1.000  C
  H26      1.0000 0.20580  0.89400  0.56980  Biso   1.000  H
  C49      1.0000 0.34030  0.79930  0.63760  Biso   1.000  C
  H27      1.0000 0.33920  0.88800  0.63870  Biso   1.000  H
  C50      1.0000 0.15590  0.73830  0.53290  Biso   1.000  C
  H28      1.0000 0.10950  0.78320  0.51080  Biso   1.000  H
  C51      1.0000 0.28710  0.60190  0.59960  Biso   1.000  C
  C52      1.0000 0.72610  0.05920  0.66590  Biso   1.000  C
  C53      1.0000 0.41370  0.59540  0.67140  Biso   1.000  C
  C54      1.0000 0.92270  0.30540  0.41080  Biso   1.000  C
  C55      1.0000 0.77070  0.99010  0.63510  Biso   1.000  C
  H29      1.0000 0.78150  0.90290  0.63970  Biso   1.000  H
  C56      1.0000 0.73870  0.25840  0.62560  Biso   1.000  C
  H30      1.0000 0.72710  0.34580  0.62260  Biso   1.000  H
  C57      1.0000 0.47260  0.52980  0.70870  Biso   1.000  C
  H31      1.0000 0.46710  0.44130  0.70850  Biso   1.000  H
  C58      1.0000 0.66940  0.25790  0.69830  Biso   1.000  C
  H32      1.0000 0.65880  0.34550  0.69530  Biso   1.000  H
  C59      1.0000 0.00810  0.48760  0.36200  Biso   1.000  C
  H33      1.0000 0.03560  0.55030  0.34550  Biso   1.000  H
  C60      1.0000 0.47710  0.80040  0.71540  Biso   1.000  C
  H34      1.0000 0.47280  0.88800  0.71990  Biso   1.000  H
  C61      1.0000 0.71410  0.18860  0.66410  Biso   1.000  C
  C62      1.0000 0.69940  0.99540  0.71200  Biso   1.000  C
  H35      1.0000 0.71220  0.90880  0.71730  Biso   1.000  H
  C63      1.0000 0.53520  0.58090  0.74420  Biso   1.000  C
  H36      1.0000 0.57220  0.53060  0.76780  Biso   1.000  H
  C64      1.0000 0.35490  0.53360  0.63350  Biso   1.000  C
  H37      1.0000 0.36050  0.44560  0.63040  Biso   1.000  H
  C65      1.0000 0.64250  0.19110  0.73570  Biso   1.000  C
  H38      1.0000 0.61140  0.23790  0.75620  Biso   1.000  H
  C66      1.0000 0.94020  0.37940  0.33880  Biso   1.000  C
  H39      1.0000 0.93260  0.37240  0.30630  Biso   1.000  H
  C67      1.0000 0.65700  0.06580  0.74500  Biso   1.000  C
  H40      1.0000 0.64020  0.02800  0.77150  Biso   1.000  H
  C68      1.0000 0.40490  0.72780  0.67220  Biso   1.000  C
  C69      1.0000 0.89140  0.29500  0.35970  Biso   1.000  C
  H41      1.0000 0.84380  0.23710  0.34430  Biso   1.000  H
  N6       1.0000 0.98040  0.39500  0.43480  Biso   1.000  N
  C70      1.0000 0.54500  0.72560  0.74510  Biso   1.000  C
  H42      1.0000 0.59760  0.76400  0.76600  Biso   1.000  H
  Fe1      1.0000 0.00000  0.39430  0.50000  Biso   1.000  Fe
  N7       1.0000 0.40150  0.02750  0.00750  Biso   1.000  N
  C71      1.0000 0.33740  0.09410  0.97380  Biso   1.000  C
  N8       1.0000 0.60120  0.75960  0.01140  Biso   1.000  N
  C72      1.0000 0.21910  0.23520  0.89680  Biso   1.000  C
  O5       1.0000 0.68360  0.62460  0.07520  Biso   1.000  O
  C73      1.0000 0.64470  0.69550  0.97810  Biso   1.000  C
  C74      1.0000 0.47500  0.98090  0.08670  Biso   1.000  C
  O6       1.0000 0.35330  0.15450  0.06880  Biso   1.000  O
  C75      1.0000 0.70060  0.55030  0.90260  Biso   1.000  C
  C76      1.0000 0.71900  0.69060  0.90740  Biso   1.000  C
  C77      1.0000 0.62670  0.72210  0.05710  Biso   1.000  C
  C78      1.0000 0.62790  0.55190  0.97320  Biso   1.000  C
  H43      1.0000 0.59640  0.50930  0.99460  Biso   1.000  H
  C79      1.0000 0.27400  0.03630  0.93960  Biso   1.000  C
  H44      1.0000 0.26840  0.94790  0.94100  Biso   1.000  H
  C80      1.0000 0.65990  0.48090  0.93620  Biso   1.000  C
  H45      1.0000 0.65380  0.39250  0.93450  Biso   1.000  H
  C81      1.0000 0.68820  0.75820  0.94860  Biso   1.000  C
  H46      1.0000 0.70040  0.84530  0.95290  Biso   1.000  H
  C82      1.0000 0.40340  0.06710  0.05190  Biso   1.000  C
  C83      1.0000 0.28830  0.30570  0.93190  Biso   1.000  C
  H47      1.0000 0.29420  0.39400  0.93020  Biso   1.000  H
  C84      1.0000 0.15970  0.29930  0.86240  Biso   1.000  C
  H48      1.0000 0.16080  0.38800  0.86130  Biso   1.000  H
  C85      1.0000 0.34410  0.23830  0.96710  Biso   1.000  C
  H49      1.0000 0.39050  0.28320  0.98920  Biso   1.000  H
  C86      1.0000 0.21290  0.10190  0.90040  Biso   1.000  C
  C87      1.0000 0.77390  0.55920  0.83410  Biso   1.000  C
  C88      1.0000 0.08630  0.09540  0.82860  Biso   1.000  C
  C89      1.0000 0.57730  0.80540  0.08920  Biso   1.000  C
  C90      1.0000 0.72930  0.49010  0.86490  Biso   1.000  C
  H50      1.0000 0.71850  0.40290  0.86030  Biso   1.000  H
  C91      1.0000 0.76130  0.75840  0.87440  Biso   1.000  C
  H51      1.0000 0.77290  0.84580  0.87740  Biso   1.000  H
  C92      1.0000 0.02740  0.02980  0.79130  Biso   1.000  C
  H52      1.0000 0.03290  0.94130  0.79150  Biso   1.000  H
  C93      1.0000 0.83060  0.75790  0.80170  Biso   1.000  C
  H53      1.0000 0.84120  0.84550  0.80470  Biso   1.000  H
  C94      1.0000 0.49190  0.98760  0.13800  Biso   1.000  C
  H54      1.0000 0.46440  0.05030  0.15450  Biso   1.000  H
  C95      1.0000 0.02290  0.30040  0.78460  Biso   1.000  C
  H55      1.0000 0.02720  0.38800  0.78010  Biso   1.000  H
  C96      1.0000 0.78590  0.68860  0.83590  Biso   1.000  C
  C97      1.0000 0.80060  0.49540  0.78800  Biso   1.000  C
  H56      1.0000 0.78780  0.40880  0.78270  Biso   1.000  H
  C98      1.0000 0.96480  0.08090  0.75580  Biso   1.000  C
  H57      1.0000 0.92780  0.03060  0.73220  Biso   1.000  H
  C99      1.0000 0.14510  0.03360  0.86650  Biso   1.000  C
  H58      1.0000 0.13950  0.94560  0.86960  Biso   1.000  H
  C100     1.0000 0.85750  0.69110  0.76430  Biso   1.000  C
  H59      1.0000 0.88860  0.73790  0.74380  Biso   1.000  H
  C101     1.0000 0.55980  0.87940  0.16120  Biso   1.000  C
  H60      1.0000 0.56740  0.87240  0.19370  Biso   1.000  H
  C102     1.0000 0.84300  0.56580  0.75500  Biso   1.000  C
  H61      1.0000 0.85980  0.52800  0.72850  Biso   1.000  H
  C103     1.0000 0.09510  0.22780  0.82780  Biso   1.000  C
  C104     1.0000 0.60860  0.79500  0.14030  Biso   1.000  C
  H62      1.0000 0.65620  0.73710  0.15570  Biso   1.000  H
  N9       1.0000 0.51960  0.89500  0.06520  Biso   1.000  N
  C105     1.0000 0.95500  0.22560  0.75490  Biso   1.000  C
  H63      1.0000 0.90240  0.26400  0.73400  Biso   1.000  H
  N10      1.0000 0.59850  0.02750  0.99250  Biso   1.000  N
  C106     1.0000 0.66260  0.09410  0.02620  Biso   1.000  C
  N11      1.0000 0.39880  0.75960  0.98860  Biso   1.000  N
  C107     1.0000 0.78090  0.23520  0.10320  Biso   1.000  C
  O7       1.0000 0.31640  0.62460  0.92480  Biso   1.000  O
  C108     1.0000 0.35530  0.69550  0.02190  Biso   1.000  C
  C109     1.0000 0.52500  0.98090  0.91330  Biso   1.000  C
  O8       1.0000 0.64670  0.15450  0.93120  Biso   1.000  O
  C110     1.0000 0.29940  0.55030  0.09740  Biso   1.000  C
  C111     1.0000 0.28100  0.69060  0.09260  Biso   1.000  C
  C112     1.0000 0.37330  0.72210  0.94290  Biso   1.000  C
  C113     1.0000 0.37210  0.55190  0.02680  Biso   1.000  C
  H64      1.0000 0.40360  0.50930  0.00540  Biso   1.000  H
  C114     1.0000 0.72600  0.03630  0.06040  Biso   1.000  C
  H65      1.0000 0.73160  0.94790  0.05900  Biso   1.000  H
  C115     1.0000 0.34010  0.48090  0.06380  Biso   1.000  C
  H66      1.0000 0.34620  0.39250  0.06550  Biso   1.000  H
  C116     1.0000 0.31180  0.75820  0.05140  Biso   1.000  C
  H67      1.0000 0.29960  0.84530  0.04710  Biso   1.000  H
  C117     1.0000 0.59660  0.06710  0.94810  Biso   1.000  C
  C118     1.0000 0.71170  0.30570  0.06810  Biso   1.000  C
  H68      1.0000 0.70580  0.39400  0.06980  Biso   1.000  H
  C119     1.0000 0.84030  0.29930  0.13760  Biso   1.000  C
  H69      1.0000 0.83920  0.38800  0.13870  Biso   1.000  H
  C120     1.0000 0.65590  0.23830  0.03290  Biso   1.000  C
  H70      1.0000 0.60950  0.28320  0.01080  Biso   1.000  H
  C121     1.0000 0.78710  0.10190  0.09960  Biso   1.000  C
  C122     1.0000 0.22610  0.55920  0.16590  Biso   1.000  C
  C123     1.0000 0.91370  0.09540  0.17140  Biso   1.000  C
  C124     1.0000 0.42270  0.80540  0.91080  Biso   1.000  C
  C125     1.0000 0.27070  0.49010  0.13510  Biso   1.000  C
  H71      1.0000 0.28150  0.40290  0.13970  Biso   1.000  H
  C126     1.0000 0.23870  0.75840  0.12560  Biso   1.000  C
  H72      1.0000 0.22710  0.84580  0.12260  Biso   1.000  H
  C127     1.0000 0.97260  0.02980  0.20870  Biso   1.000  C
  H73      1.0000 0.96710  0.94130  0.20850  Biso   1.000  H
  C128     1.0000 0.16940  0.75790  0.19830  Biso   1.000  C
  H74      1.0000 0.15880  0.84550  0.19530  Biso   1.000  H
  C129     1.0000 0.50810  0.98760  0.86200  Biso   1.000  C
  H75      1.0000 0.53560  0.05030  0.84550  Biso   1.000  H
  C130     1.0000 0.97710  0.30040  0.21540  Biso   1.000  C
  H76      1.0000 0.97280  0.38800  0.21990  Biso   1.000  H
  C131     1.0000 0.21410  0.68860  0.16410  Biso   1.000  C
  C132     1.0000 0.19940  0.49540  0.21200  Biso   1.000  C
  H77      1.0000 0.21220  0.40880  0.21730  Biso   1.000  H
  C133     1.0000 0.03520  0.08090  0.24420  Biso   1.000  C
  H78      1.0000 0.07220  0.03060  0.26780  Biso   1.000  H
  C134     1.0000 0.85490  0.03360  0.13350  Biso   1.000  C
  H79      1.0000 0.86050  0.94560  0.13040  Biso   1.000  H
  C135     1.0000 0.14250  0.69110  0.23570  Biso   1.000  C
  H80      1.0000 0.11140  0.73790  0.25620  Biso   1.000  H
  C136     1.0000 0.44020  0.87940  0.83880  Biso   1.000  C
  H81      1.0000 0.43260  0.87240  0.80630  Biso   1.000  H
  C137     1.0000 0.15700  0.56580  0.24500  Biso   1.000  C
  H82      1.0000 0.14020  0.52800  0.27150  Biso   1.000  H
  C138     1.0000 0.90490  0.22780  0.17220  Biso   1.000  C
  C139     1.0000 0.39140  0.79500  0.85970  Biso   1.000  C
  H83      1.0000 0.34380  0.73710  0.84430  Biso   1.000  H
  N12      1.0000 0.48040  0.89500  0.93480  Biso   1.000  N
  C140     1.0000 0.04500  0.22560  0.24510  Biso   1.000  C
  H84      1.0000 0.09760  0.26400  0.26600  Biso   1.000  H
  Fe2      1.0000 0.50000  0.89430  0.00000  Biso   1.000  Fe
