data_image0
_cell_length_a       10.109
_cell_length_b       11.2544
_cell_length_c       12.3282
_cell_angle_alpha    70.576
_cell_angle_beta     77.903
_cell_angle_gamma    82.21

_symmetry_space_group_name_H-M    "P 1"
_symmetry_int_tables_number       1

loop_
  _symmetry_equiv_pos_as_xyz
  'x, y, z'

loop_
  _atom_site_label
  _atom_site_occupancy
  _atom_site_fract_x
  _atom_site_fract_y
  _atom_site_fract_z
  _atom_site_thermal_displace_type
  _atom_site_B_iso_or_equiv
  _atom_site_type_symbol
  Ni1      1.0000 0.59908  0.73184  0.63862  Biso   1.000  Ni
  N1       1.0000 0.60350  0.79050  0.46064  Biso   1.000  N
  N2       1.0000 0.55700  0.89420  0.28566  Biso   1.000  N
  N3       1.0000 0.67810  0.58580  0.97976  Biso   1.000  N
  N4       1.0000 0.59760  0.66980  0.81696  Biso   1.000  N
  O1       1.0000 0.70133  0.88949  0.62803  Biso   1.000  O
  O2       1.0000 0.81557  0.71438  0.61453  Biso   1.000  O
  O3       1.0000 0.30564  0.65106  0.64345  Biso   1.000  O
  O4       1.0000 0.40442  0.80363  0.66573  Biso   1.000  O
  C1       1.0000 0.81110  0.82280  0.62420  Biso   1.000  C
  C2       1.0000 0.93570  0.87030  0.63770  Biso   1.000  C
  C3       1.0000 0.92960  0.98770  0.65190  Biso   1.000  C
  H1       1.0000 0.84850  0.03780  0.65130  Biso   1.000  H
  C4       1.0000 0.04410  0.03050  0.66700  Biso   1.000  C
  H2       1.0000 0.04030  0.10950  0.67660  Biso   1.000  H
  C5       1.0000 0.16440  0.95550  0.66770  Biso   1.000  C
  H3       1.0000 0.24150  0.98490  0.67740  Biso   1.000  H
  C6       1.0000 0.17190  0.83780  0.65440  Biso   1.000  C
  C7       1.0000 0.05650  0.79550  0.63980  Biso   1.000  C
  H4       1.0000 0.06010  0.71590  0.63130  Biso   1.000  H
  C8       1.0000 0.30350  0.75780  0.65410  Biso   1.000  C
  C9       1.0000 0.52260  0.87840  0.40100  Biso   1.000  C
  H5       1.0000 0.45090  0.92360  0.43420  Biso   1.000  H
  C10      1.0000 0.69410  0.74850  0.37880  Biso   1.000  C
  H6       1.0000 0.76430  0.68630  0.39510  Biso   1.000  H
  C11      1.0000 0.66560  0.81140  0.27100  Biso   1.000  C
  H7       1.0000 0.71110  0.80030  0.20080  Biso   1.000  H
  C12      1.0000 0.48340  0.97720  0.19570  Biso   1.000  C
  H8       1.0000 0.54770  0.01070  0.12460  Biso   1.000  H
  H9       1.0000 0.43860  0.04790  0.22080  Biso   1.000  H
  C13      1.0000 0.37900  0.91200  0.16940  Biso   1.000  C
  C14      1.0000 0.29460  0.98140  0.09140  Biso   1.000  C
  H10      1.0000 0.30530  0.06710  0.05440  Biso   1.000  H
  C15      1.0000 0.19570  0.92590  0.06780  Biso   1.000  C
  H11      1.0000 0.14110  0.97470  0.01470  Biso   1.000  H
  C16      1.0000 0.17570  0.79910  0.12120  Biso   1.000  C
  C17      1.0000 0.26200  0.72980  0.19890  Biso   1.000  C
  H12      1.0000 0.25230  0.64390  0.23570  Biso   1.000  H
  C18      1.0000 0.36050  0.78580  0.22190  Biso   1.000  C
  H13      1.0000 0.41610  0.73720  0.27420  Biso   1.000  H
  C19      1.0000 0.70030  0.60520  0.86460  Biso   1.000  C
  H14      1.0000 0.77890  0.57630  0.82340  Biso   1.000  H
  C20      1.0000 0.50480  0.69230  0.90710  Biso   1.000  C
  H15      1.0000 0.42100  0.73690  0.89990  Biso   1.000  H
  C21      1.0000 0.55300  0.64020  0.00820  Biso   1.000  C
  H16      1.0000 0.50930  0.64130  0.08220  Biso   1.000  H
  C22      1.0000 0.77350  0.51940  0.05830  Biso   1.000  C
  H17      1.0000 0.82650  0.45440  0.02900  Biso   1.000  H
  H18      1.0000 0.72230  0.47770  0.13460  Biso   1.000  H
  C23      1.0000 0.86860  0.60280  0.07200  Biso   1.000  C
  C24      1.0000 0.92500  0.70220  0.98320  Biso   1.000  C
  H19      1.0000 0.89670  0.72630  0.91140  Biso   1.000  H
  C25      1.0000 0.02290  0.76800  0.99710  Biso   1.000  C
  H20      1.0000 0.06030  0.83420  0.93450  Biso   1.000  H
  C26      1.0000 0.06590  0.73610  0.10360  Biso   1.000  C
  C27      1.0000 0.00440  0.63800  0.19440  Biso   1.000  C
  H21      1.0000 0.02950  0.61570  0.26740  Biso   1.000  H
  C28      1.0000 0.90810  0.57320  0.17940  Biso   1.000  C
  H22      1.0000 0.86870  0.50840  0.24220  Biso   1.000  H
  Ni2      1.0000 0.40092  0.26816  0.36138  Biso   1.000  Ni
  N5       1.0000 0.39650  0.20950  0.53936  Biso   1.000  N
  N6       1.0000 0.44300  0.10580  0.71434  Biso   1.000  N
  N7       1.0000 0.32190  0.41420  0.02024  Biso   1.000  N
  N8       1.0000 0.40240  0.33020  0.18304  Biso   1.000  N
  O5       1.0000 0.29867  0.11051  0.37197  Biso   1.000  O
  O6       1.0000 0.18443  0.28562  0.38547  Biso   1.000  O
  O7       1.0000 0.69436  0.34894  0.35655  Biso   1.000  O
  O8       1.0000 0.59558  0.19637  0.33427  Biso   1.000  O
  C29      1.0000 0.18890  0.17720  0.37580  Biso   1.000  C
  C30      1.0000 0.06430  0.12970  0.36230  Biso   1.000  C
  C31      1.0000 0.07040  0.01230  0.34810  Biso   1.000  C
  H23      1.0000 0.15150  0.96220  0.34870  Biso   1.000  H
  C32      1.0000 0.95590  0.96950  0.33300  Biso   1.000  C
  H24      1.0000 0.95970  0.89050  0.32340  Biso   1.000  H
  C33      1.0000 0.83560  0.04450  0.33230  Biso   1.000  C
  H25      1.0000 0.75850  0.01510  0.32260  Biso   1.000  H
  C34      1.0000 0.82810  0.16220  0.34560  Biso   1.000  C
  C35      1.0000 0.94350  0.20450  0.36020  Biso   1.000  C
  H26      1.0000 0.93990  0.28410  0.36870  Biso   1.000  H
  C36      1.0000 0.69650  0.24220  0.34590  Biso   1.000  C
  C37      1.0000 0.47740  0.12160  0.59900  Biso   1.000  C
  H27      1.0000 0.54910  0.07640  0.56580  Biso   1.000  H
  C38      1.0000 0.30590  0.25150  0.62120  Biso   1.000  C
  H28      1.0000 0.23570  0.31370  0.60490  Biso   1.000  H
  C39      1.0000 0.33440  0.18860  0.72900  Biso   1.000  C
  H29      1.0000 0.28890  0.19970  0.79920  Biso   1.000  H
  C40      1.0000 0.51660  0.02280  0.80430  Biso   1.000  C
  H30      1.0000 0.45230  0.98930  0.87540  Biso   1.000  H
  H31      1.0000 0.56140  0.95210  0.77920  Biso   1.000  H
  C41      1.0000 0.62100  0.08800  0.83060  Biso   1.000  C
  C42      1.0000 0.70540  0.01860  0.90860  Biso   1.000  C
  H32      1.0000 0.69470  0.93290  0.94560  Biso   1.000  H
  C43      1.0000 0.80430  0.07410  0.93220  Biso   1.000  C
  H33      1.0000 0.85890  0.02530  0.98530  Biso   1.000  H
  C44      1.0000 0.82430  0.20090  0.87880  Biso   1.000  C
  C45      1.0000 0.73800  0.27020  0.80110  Biso   1.000  C
  H34      1.0000 0.74770  0.35610  0.76430  Biso   1.000  H
  C46      1.0000 0.63950  0.21420  0.77810  Biso   1.000  C
  H35      1.0000 0.58390  0.26280  0.72580  Biso   1.000  H
  C47      1.0000 0.29970  0.39480  0.13540  Biso   1.000  C
  H36      1.0000 0.22110  0.42370  0.17660  Biso   1.000  H
  C48      1.0000 0.49520  0.30770  0.09290  Biso   1.000  C
  H37      1.0000 0.57900  0.26310  0.10010  Biso   1.000  H
  C49      1.0000 0.44700  0.35980  0.99180  Biso   1.000  C
  H38      1.0000 0.49070  0.35870  0.91780  Biso   1.000  H
  C50      1.0000 0.22650  0.48060  0.94170  Biso   1.000  C
  H39      1.0000 0.17350  0.54560  0.97100  Biso   1.000  H
  H40      1.0000 0.27770  0.52230  0.86540  Biso   1.000  H
  C51      1.0000 0.13140  0.39720  0.92800  Biso   1.000  C
  C52      1.0000 0.07500  0.29780  0.01680  Biso   1.000  C
  H41      1.0000 0.10330  0.27370  0.08860  Biso   1.000  H
  C53      1.0000 0.97710  0.23200  0.00290  Biso   1.000  C
  H42      1.0000 0.93970  0.16580  0.06550  Biso   1.000  H
  C54      1.0000 0.93410  0.26390  0.89640  Biso   1.000  C
  C55      1.0000 0.99560  0.36200  0.80560  Biso   1.000  C
  H43      1.0000 0.97050  0.38430  0.73260  Biso   1.000  H
  C56      1.0000 0.09190  0.42680  0.82060  Biso   1.000  C
  H44      1.0000 0.13130  0.49160  0.75780  Biso   1.000  H
