data_image0
_cell_length_a       25.1433
_cell_length_b       25.1433
_cell_length_c       10.6879
_cell_angle_alpha    90
_cell_angle_beta     90
_cell_angle_gamma    90

_symmetry_space_group_name_H-M    "P 1"
_symmetry_int_tables_number       1

loop_
  _symmetry_equiv_pos_as_xyz
  'x, y, z'

loop_
  _atom_site_label
  _atom_site_occupancy
  _atom_site_fract_x
  _atom_site_fract_y
  _atom_site_fract_z
  _atom_site_thermal_displace_type
  _atom_site_B_iso_or_equiv
  _atom_site_type_symbol
  O1       1.0000 0.37736  0.21775  0.00830  Biso   1.000  O
  O2       1.0000 0.50123  0.22531  0.00390  Biso   1.000  O
  O3       1.0000 0.55576  0.28852  0.93330  Biso   1.000  O
  N1       1.0000 0.34855  0.14639  0.11960  Biso   1.000  N
  H1       1.0000 0.32220  0.12520  0.13080  Biso   1.000  H
  C1       1.0000 0.54685  0.24338  0.98150  Biso   1.000  C
  C2       1.0000 0.34380  0.18290  0.03020  Biso   1.000  C
  C3       1.0000 0.29489  0.17998  0.95080  Biso   1.000  C
  C4       1.0000 0.39327  0.13963  0.19750  Biso   1.000  C
  C5       1.0000 0.24427  0.17920  0.00390  Biso   1.000  C
  H2       1.0000 0.24050  0.17780  0.09040  Biso   1.000  H
  C6       1.0000 0.40295  0.09574  0.27240  Biso   1.000  C
  H3       1.0000 0.38220  0.06530  0.28070  Biso   1.000  H
  C7       1.0000 0.30028  0.18050  0.82180  Biso   1.000  C
  H4       1.0000 0.33400  0.18170  0.78610  Biso   1.000  H
  C8       1.0000 0.63563  0.22540  0.08730  Biso   1.000  C
  C9       1.0000 0.59413  0.20905  0.00710  Biso   1.000  C
  C10      1.0000 0.68051  0.19250  0.09420  Biso   1.000  C
  H5       1.0000 0.70820  0.20200  0.14750  Biso   1.000  H
  C11      1.0000 0.64420  0.13160  0.94780  Biso   1.000  C
  H6       1.0000 0.64710  0.10060  0.90080  Biso   1.000  H
  C12      1.0000 0.59860  0.16230  0.93980  Biso   1.000  C
  H7       1.0000 0.57080  0.15140  0.88870  Biso   1.000  H
  C13      1.0000 0.68490  0.14660  0.02450  Biso   1.000  C
  H8       1.0000 0.71550  0.12600  0.02970  Biso   1.000  H
  N2       1.0000 0.43137  0.17607  0.20890  Biso   1.000  N
  N3       1.0000 0.46567  0.15516  0.29180  Biso   1.000  N
  H9       1.0000 0.49430  0.17070  0.31640  Biso   1.000  H
  C14      1.0000 0.44982  0.10706  0.33150  Biso   1.000  C
  C15      1.0000 0.48100  0.07680  0.42780  Biso   1.000  C
  H10      1.0000 0.51270  0.09610  0.44820  Biso   1.000  H
  H11      1.0000 0.49030  0.04250  0.39500  Biso   1.000  H
  H12      1.0000 0.45970  0.07230  0.50170  Biso   1.000  H
  O4       1.0000 0.12264  0.28225  0.50830  Biso   1.000  O
  O5       1.0000 0.99877  0.27469  0.50390  Biso   1.000  O
  O6       1.0000 0.94424  0.21148  0.43330  Biso   1.000  O
  N4       1.0000 0.15145  0.35361  0.61960  Biso   1.000  N
  H13      1.0000 0.17780  0.37480  0.63080  Biso   1.000  H
  C16      1.0000 0.95315  0.25662  0.48150  Biso   1.000  C
  C17      1.0000 0.15620  0.31710  0.53020  Biso   1.000  C
  C18      1.0000 0.20511  0.32002  0.45080  Biso   1.000  C
  C19      1.0000 0.10673  0.36037  0.69750  Biso   1.000  C
  C20      1.0000 0.25573  0.32080  0.50390  Biso   1.000  C
  H14      1.0000 0.25950  0.32220  0.59040  Biso   1.000  H
  C21      1.0000 0.09705  0.40426  0.77240  Biso   1.000  C
  H15      1.0000 0.11780  0.43470  0.78070  Biso   1.000  H
  C22      1.0000 0.19972  0.31950  0.32180  Biso   1.000  C
  H16      1.0000 0.16600  0.31830  0.28610  Biso   1.000  H
  C23      1.0000 0.86437  0.27460  0.58730  Biso   1.000  C
  C24      1.0000 0.90587  0.29095  0.50710  Biso   1.000  C
  C25      1.0000 0.81949  0.30750  0.59420  Biso   1.000  C
  H17      1.0000 0.79180  0.29800  0.64750  Biso   1.000  H
  C26      1.0000 0.85580  0.36840  0.44780  Biso   1.000  C
  H18      1.0000 0.85290  0.39940  0.40080  Biso   1.000  H
  C27      1.0000 0.90140  0.33770  0.43980  Biso   1.000  C
  H19      1.0000 0.92920  0.34860  0.38870  Biso   1.000  H
  C28      1.0000 0.81510  0.35340  0.52450  Biso   1.000  C
  H20      1.0000 0.78450  0.37400  0.52970  Biso   1.000  H
  N5       1.0000 0.06863  0.32393  0.70890  Biso   1.000  N
  N6       1.0000 0.03433  0.34484  0.79180  Biso   1.000  N
  H21      1.0000 0.00570  0.32930  0.81640  Biso   1.000  H
  C29      1.0000 0.05018  0.39294  0.83150  Biso   1.000  C
  C30      1.0000 0.01900  0.42320  0.92780  Biso   1.000  C
  H22      1.0000 0.98730  0.40390  0.94820  Biso   1.000  H
  H23      1.0000 0.00970  0.45750  0.89500  Biso   1.000  H
  H24      1.0000 0.04030  0.42770  0.00170  Biso   1.000  H
  O7       1.0000 0.12264  0.21775  0.74170  Biso   1.000  O
  O8       1.0000 0.99877  0.22531  0.74610  Biso   1.000  O
  O9       1.0000 0.94424  0.28852  0.81670  Biso   1.000  O
  N7       1.0000 0.15145  0.14639  0.63040  Biso   1.000  N
  H25      1.0000 0.17780  0.12520  0.61920  Biso   1.000  H
  C31      1.0000 0.95315  0.24338  0.76850  Biso   1.000  C
  C32      1.0000 0.15620  0.18290  0.71980  Biso   1.000  C
  C33      1.0000 0.20511  0.17998  0.79920  Biso   1.000  C
  C34      1.0000 0.10673  0.13963  0.55250  Biso   1.000  C
  C35      1.0000 0.25573  0.17920  0.74610  Biso   1.000  C
  H26      1.0000 0.25950  0.17780  0.65960  Biso   1.000  H
  C36      1.0000 0.09705  0.09574  0.47760  Biso   1.000  C
  H27      1.0000 0.11780  0.06530  0.46930  Biso   1.000  H
  C37      1.0000 0.19972  0.18050  0.92820  Biso   1.000  C
  H28      1.0000 0.16600  0.18170  0.96390  Biso   1.000  H
  C38      1.0000 0.86437  0.22540  0.66270  Biso   1.000  C
  C39      1.0000 0.90587  0.20905  0.74290  Biso   1.000  C
  C40      1.0000 0.81949  0.19250  0.65580  Biso   1.000  C
  H29      1.0000 0.79180  0.20200  0.60250  Biso   1.000  H
  C41      1.0000 0.85580  0.13160  0.80220  Biso   1.000  C
  H30      1.0000 0.85290  0.10060  0.84920  Biso   1.000  H
  C42      1.0000 0.90140  0.16230  0.81020  Biso   1.000  C
  H31      1.0000 0.92920  0.15140  0.86130  Biso   1.000  H
  C43      1.0000 0.81510  0.14660  0.72550  Biso   1.000  C
  H32      1.0000 0.78450  0.12600  0.72030  Biso   1.000  H
  N8       1.0000 0.06863  0.17607  0.54110  Biso   1.000  N
  N9       1.0000 0.03433  0.15516  0.45820  Biso   1.000  N
  H33      1.0000 0.00570  0.17070  0.43360  Biso   1.000  H
  C44      1.0000 0.05018  0.10706  0.41850  Biso   1.000  C
  C45      1.0000 0.01900  0.07680  0.32220  Biso   1.000  C
  H34      1.0000 0.98730  0.09610  0.30180  Biso   1.000  H
  H35      1.0000 0.00970  0.04250  0.35500  Biso   1.000  H
  H36      1.0000 0.04030  0.07230  0.24830  Biso   1.000  H
  O10      1.0000 0.37736  0.28225  0.24170  Biso   1.000  O
  O11      1.0000 0.50123  0.27469  0.24610  Biso   1.000  O
  O12      1.0000 0.55576  0.21148  0.31670  Biso   1.000  O
  N10      1.0000 0.34855  0.35361  0.13040  Biso   1.000  N
  H37      1.0000 0.32220  0.37480  0.11920  Biso   1.000  H
  C46      1.0000 0.54685  0.25662  0.26850  Biso   1.000  C
  C47      1.0000 0.34380  0.31710  0.21980  Biso   1.000  C
  C48      1.0000 0.29489  0.32002  0.29920  Biso   1.000  C
  C49      1.0000 0.39327  0.36037  0.05250  Biso   1.000  C
  C50      1.0000 0.24427  0.32080  0.24610  Biso   1.000  C
  H38      1.0000 0.24050  0.32220  0.15960  Biso   1.000  H
  C51      1.0000 0.40295  0.40426  0.97760  Biso   1.000  C
  H39      1.0000 0.38220  0.43470  0.96930  Biso   1.000  H
  C52      1.0000 0.30028  0.31950  0.42820  Biso   1.000  C
  H40      1.0000 0.33400  0.31830  0.46390  Biso   1.000  H
  C53      1.0000 0.63563  0.27460  0.16270  Biso   1.000  C
  C54      1.0000 0.59413  0.29095  0.24290  Biso   1.000  C
  C55      1.0000 0.68051  0.30750  0.15580  Biso   1.000  C
  H41      1.0000 0.70820  0.29800  0.10250  Biso   1.000  H
  C56      1.0000 0.64420  0.36840  0.30220  Biso   1.000  C
  H42      1.0000 0.64710  0.39940  0.34920  Biso   1.000  H
  C57      1.0000 0.59860  0.33770  0.31020  Biso   1.000  C
  H43      1.0000 0.57080  0.34860  0.36130  Biso   1.000  H
  C58      1.0000 0.68490  0.35340  0.22550  Biso   1.000  C
  H44      1.0000 0.71550  0.37400  0.22030  Biso   1.000  H
  N11      1.0000 0.43137  0.32393  0.04110  Biso   1.000  N
  N12      1.0000 0.46567  0.34484  0.95820  Biso   1.000  N
  H45      1.0000 0.49430  0.32930  0.93360  Biso   1.000  H
  C59      1.0000 0.44982  0.39294  0.91850  Biso   1.000  C
  C60      1.0000 0.48100  0.42320  0.82220  Biso   1.000  C
  H46      1.0000 0.51270  0.40390  0.80180  Biso   1.000  H
  H47      1.0000 0.49030  0.45750  0.85500  Biso   1.000  H
  H48      1.0000 0.45970  0.42770  0.74830  Biso   1.000  H
  Co1      1.0000 0.43964  0.25000  0.12500  Biso   1.000  Co
  Co2      1.0000 0.06036  0.25000  0.62500  Biso   1.000  Co
  O13      1.0000 0.87736  0.71775  0.50830  Biso   1.000  O
  O14      1.0000 0.00123  0.72531  0.50390  Biso   1.000  O
  O15      1.0000 0.05576  0.78852  0.43330  Biso   1.000  O
  N13      1.0000 0.84855  0.64639  0.61960  Biso   1.000  N
  H49      1.0000 0.82220  0.62520  0.63080  Biso   1.000  H
  C61      1.0000 0.04685  0.74338  0.48150  Biso   1.000  C
  C62      1.0000 0.84380  0.68290  0.53020  Biso   1.000  C
  C63      1.0000 0.79489  0.67998  0.45080  Biso   1.000  C
  C64      1.0000 0.89327  0.63963  0.69750  Biso   1.000  C
  C65      1.0000 0.74427  0.67920  0.50390  Biso   1.000  C
  H50      1.0000 0.74050  0.67780  0.59040  Biso   1.000  H
  C66      1.0000 0.90295  0.59574  0.77240  Biso   1.000  C
  H51      1.0000 0.88220  0.56530  0.78070  Biso   1.000  H
  C67      1.0000 0.80028  0.68050  0.32180  Biso   1.000  C
  H52      1.0000 0.83400  0.68170  0.28610  Biso   1.000  H
  C68      1.0000 0.13563  0.72540  0.58730  Biso   1.000  C
  C69      1.0000 0.09413  0.70905  0.50710  Biso   1.000  C
  C70      1.0000 0.18051  0.69250  0.59420  Biso   1.000  C
  H53      1.0000 0.20820  0.70200  0.64750  Biso   1.000  H
  C71      1.0000 0.14420  0.63160  0.44780  Biso   1.000  C
  H54      1.0000 0.14710  0.60060  0.40080  Biso   1.000  H
  C72      1.0000 0.09860  0.66230  0.43980  Biso   1.000  C
  H55      1.0000 0.07080  0.65140  0.38870  Biso   1.000  H
  C73      1.0000 0.18490  0.64660  0.52450  Biso   1.000  C
  H56      1.0000 0.21550  0.62600  0.52970  Biso   1.000  H
  N14      1.0000 0.93137  0.67607  0.70890  Biso   1.000  N
  N15      1.0000 0.96567  0.65516  0.79180  Biso   1.000  N
  H57      1.0000 0.99430  0.67070  0.81640  Biso   1.000  H
  C74      1.0000 0.94982  0.60706  0.83150  Biso   1.000  C
  C75      1.0000 0.98100  0.57680  0.92780  Biso   1.000  C
  H58      1.0000 0.01270  0.59610  0.94820  Biso   1.000  H
  H59      1.0000 0.99030  0.54250  0.89500  Biso   1.000  H
  H60      1.0000 0.95970  0.57230  0.00170  Biso   1.000  H
  O16      1.0000 0.62264  0.78225  0.00830  Biso   1.000  O
  O17      1.0000 0.49877  0.77469  0.00390  Biso   1.000  O
  O18      1.0000 0.44424  0.71148  0.93330  Biso   1.000  O
  N16      1.0000 0.65145  0.85361  0.11960  Biso   1.000  N
  H61      1.0000 0.67780  0.87480  0.13080  Biso   1.000  H
  C76      1.0000 0.45315  0.75662  0.98150  Biso   1.000  C
  C77      1.0000 0.65620  0.81710  0.03020  Biso   1.000  C
  C78      1.0000 0.70511  0.82002  0.95080  Biso   1.000  C
  C79      1.0000 0.60673  0.86037  0.19750  Biso   1.000  C
  C80      1.0000 0.75573  0.82080  0.00390  Biso   1.000  C
  H62      1.0000 0.75950  0.82220  0.09040  Biso   1.000  H
  C81      1.0000 0.59705  0.90426  0.27240  Biso   1.000  C
  H63      1.0000 0.61780  0.93470  0.28070  Biso   1.000  H
  C82      1.0000 0.69972  0.81950  0.82180  Biso   1.000  C
  H64      1.0000 0.66600  0.81830  0.78610  Biso   1.000  H
  C83      1.0000 0.36437  0.77460  0.08730  Biso   1.000  C
  C84      1.0000 0.40587  0.79095  0.00710  Biso   1.000  C
  C85      1.0000 0.31949  0.80750  0.09420  Biso   1.000  C
  H65      1.0000 0.29180  0.79800  0.14750  Biso   1.000  H
  C86      1.0000 0.35580  0.86840  0.94780  Biso   1.000  C
  H66      1.0000 0.35290  0.89940  0.90080  Biso   1.000  H
  C87      1.0000 0.40140  0.83770  0.93980  Biso   1.000  C
  H67      1.0000 0.42920  0.84860  0.88870  Biso   1.000  H
  C88      1.0000 0.31510  0.85340  0.02450  Biso   1.000  C
  H68      1.0000 0.28450  0.87400  0.02970  Biso   1.000  H
  N17      1.0000 0.56863  0.82393  0.20890  Biso   1.000  N
  N18      1.0000 0.53433  0.84484  0.29180  Biso   1.000  N
  H69      1.0000 0.50570  0.82930  0.31640  Biso   1.000  H
  C89      1.0000 0.55018  0.89294  0.33150  Biso   1.000  C
  C90      1.0000 0.51900  0.92320  0.42780  Biso   1.000  C
  H70      1.0000 0.48730  0.90390  0.44820  Biso   1.000  H
  H71      1.0000 0.50970  0.95750  0.39500  Biso   1.000  H
  H72      1.0000 0.54030  0.92770  0.50170  Biso   1.000  H
  O19      1.0000 0.62264  0.71775  0.24170  Biso   1.000  O
  O20      1.0000 0.49877  0.72531  0.24610  Biso   1.000  O
  O21      1.0000 0.44424  0.78852  0.31670  Biso   1.000  O
  N19      1.0000 0.65145  0.64639  0.13040  Biso   1.000  N
  H73      1.0000 0.67780  0.62520  0.11920  Biso   1.000  H
  C91      1.0000 0.45315  0.74338  0.26850  Biso   1.000  C
  C92      1.0000 0.65620  0.68290  0.21980  Biso   1.000  C
  C93      1.0000 0.70511  0.67998  0.29920  Biso   1.000  C
  C94      1.0000 0.60673  0.63963  0.05250  Biso   1.000  C
  C95      1.0000 0.75573  0.67920  0.24610  Biso   1.000  C
  H74      1.0000 0.75950  0.67780  0.15960  Biso   1.000  H
  C96      1.0000 0.59705  0.59574  0.97760  Biso   1.000  C
  H75      1.0000 0.61780  0.56530  0.96930  Biso   1.000  H
  C97      1.0000 0.69972  0.68050  0.42820  Biso   1.000  C
  H76      1.0000 0.66600  0.68170  0.46390  Biso   1.000  H
  C98      1.0000 0.36437  0.72540  0.16270  Biso   1.000  C
  C99      1.0000 0.40587  0.70905  0.24290  Biso   1.000  C
  C100     1.0000 0.31949  0.69250  0.15580  Biso   1.000  C
  H77      1.0000 0.29180  0.70200  0.10250  Biso   1.000  H
  C101     1.0000 0.35580  0.63160  0.30220  Biso   1.000  C
  H78      1.0000 0.35290  0.60060  0.34920  Biso   1.000  H
  C102     1.0000 0.40140  0.66230  0.31020  Biso   1.000  C
  H79      1.0000 0.42920  0.65140  0.36130  Biso   1.000  H
  C103     1.0000 0.31510  0.64660  0.22550  Biso   1.000  C
  H80      1.0000 0.28450  0.62600  0.22030  Biso   1.000  H
  N20      1.0000 0.56863  0.67607  0.04110  Biso   1.000  N
  N21      1.0000 0.53433  0.65516  0.95820  Biso   1.000  N
  H81      1.0000 0.50570  0.67070  0.93360  Biso   1.000  H
  C104     1.0000 0.55018  0.60706  0.91850  Biso   1.000  C
  C105     1.0000 0.51900  0.57680  0.82220  Biso   1.000  C
  H82      1.0000 0.48730  0.59610  0.80180  Biso   1.000  H
  H83      1.0000 0.50970  0.54250  0.85500  Biso   1.000  H
  H84      1.0000 0.54030  0.57230  0.74830  Biso   1.000  H
  O22      1.0000 0.87736  0.78225  0.74170  Biso   1.000  O
  O23      1.0000 0.00123  0.77469  0.74610  Biso   1.000  O
  O24      1.0000 0.05576  0.71148  0.81670  Biso   1.000  O
  N22      1.0000 0.84855  0.85361  0.63040  Biso   1.000  N
  H85      1.0000 0.82220  0.87480  0.61920  Biso   1.000  H
  C106     1.0000 0.04685  0.75662  0.76850  Biso   1.000  C
  C107     1.0000 0.84380  0.81710  0.71980  Biso   1.000  C
  C108     1.0000 0.79489  0.82002  0.79920  Biso   1.000  C
  C109     1.0000 0.89327  0.86037  0.55250  Biso   1.000  C
  C110     1.0000 0.74427  0.82080  0.74610  Biso   1.000  C
  H86      1.0000 0.74050  0.82220  0.65960  Biso   1.000  H
  C111     1.0000 0.90295  0.90426  0.47760  Biso   1.000  C
  H87      1.0000 0.88220  0.93470  0.46930  Biso   1.000  H
  C112     1.0000 0.80028  0.81950  0.92820  Biso   1.000  C
  H88      1.0000 0.83400  0.81830  0.96390  Biso   1.000  H
  C113     1.0000 0.13563  0.77460  0.66270  Biso   1.000  C
  C114     1.0000 0.09413  0.79095  0.74290  Biso   1.000  C
  C115     1.0000 0.18051  0.80750  0.65580  Biso   1.000  C
  H89      1.0000 0.20820  0.79800  0.60250  Biso   1.000  H
  C116     1.0000 0.14420  0.86840  0.80220  Biso   1.000  C
  H90      1.0000 0.14710  0.89940  0.84920  Biso   1.000  H
  C117     1.0000 0.09860  0.83770  0.81020  Biso   1.000  C
  H91      1.0000 0.07080  0.84860  0.86130  Biso   1.000  H
  C118     1.0000 0.18490  0.85340  0.72550  Biso   1.000  C
  H92      1.0000 0.21550  0.87400  0.72030  Biso   1.000  H
  N23      1.0000 0.93137  0.82393  0.54110  Biso   1.000  N
  N24      1.0000 0.96567  0.84484  0.45820  Biso   1.000  N
  H93      1.0000 0.99430  0.82930  0.43360  Biso   1.000  H
  C119     1.0000 0.94982  0.89294  0.41850  Biso   1.000  C
  C120     1.0000 0.98100  0.92320  0.32220  Biso   1.000  C
  H94      1.0000 0.01270  0.90390  0.30180  Biso   1.000  H
  H95      1.0000 0.99030  0.95750  0.35500  Biso   1.000  H
  H96      1.0000 0.95970  0.92770  0.24830  Biso   1.000  H
  Co3      1.0000 0.56036  0.75000  0.12500  Biso   1.000  Co
  Co4      1.0000 0.93964  0.75000  0.62500  Biso   1.000  Co
  O25      1.0000 0.21775  0.62264  0.99170  Biso   1.000  O
  O26      1.0000 0.22531  0.49877  0.99610  Biso   1.000  O
  O27      1.0000 0.28852  0.44424  0.06670  Biso   1.000  O
  N25      1.0000 0.14639  0.65145  0.88040  Biso   1.000  N
  H97      1.0000 0.12520  0.67780  0.86920  Biso   1.000  H
  C121     1.0000 0.24338  0.45315  0.01850  Biso   1.000  C
  C122     1.0000 0.18290  0.65620  0.96980  Biso   1.000  C
  C123     1.0000 0.17998  0.70511  0.04920  Biso   1.000  C
  C124     1.0000 0.13963  0.60673  0.80250  Biso   1.000  C
  C125     1.0000 0.17920  0.75573  0.99610  Biso   1.000  C
  H98      1.0000 0.17780  0.75950  0.90960  Biso   1.000  H
  C126     1.0000 0.09574  0.59705  0.72760  Biso   1.000  C
  H99      1.0000 0.06530  0.61780  0.71930  Biso   1.000  H
  C127     1.0000 0.18050  0.69972  0.17820  Biso   1.000  C
  H100     1.0000 0.18170  0.66600  0.21390  Biso   1.000  H
  C128     1.0000 0.22540  0.36437  0.91270  Biso   1.000  C
  C129     1.0000 0.20905  0.40587  0.99290  Biso   1.000  C
  C130     1.0000 0.19250  0.31949  0.90580  Biso   1.000  C
  H101     1.0000 0.20200  0.29180  0.85250  Biso   1.000  H
  C131     1.0000 0.13160  0.35580  0.05220  Biso   1.000  C
  H102     1.0000 0.10060  0.35290  0.09920  Biso   1.000  H
  C132     1.0000 0.16230  0.40140  0.06020  Biso   1.000  C
  H103     1.0000 0.15140  0.42920  0.11130  Biso   1.000  H
  C133     1.0000 0.14660  0.31510  0.97550  Biso   1.000  C
  H104     1.0000 0.12600  0.28450  0.97030  Biso   1.000  H
  N26      1.0000 0.17607  0.56863  0.79110  Biso   1.000  N
  N27      1.0000 0.15516  0.53433  0.70820  Biso   1.000  N
  H105     1.0000 0.17070  0.50570  0.68360  Biso   1.000  H
  C134     1.0000 0.10706  0.55018  0.66850  Biso   1.000  C
  C135     1.0000 0.07680  0.51900  0.57220  Biso   1.000  C
  H106     1.0000 0.09610  0.48730  0.55180  Biso   1.000  H
  H107     1.0000 0.04250  0.50970  0.60500  Biso   1.000  H
  H108     1.0000 0.07230  0.54030  0.49830  Biso   1.000  H
  O28      1.0000 0.28225  0.87736  0.49170  Biso   1.000  O
  O29      1.0000 0.27469  0.00123  0.49610  Biso   1.000  O
  O30      1.0000 0.21148  0.05576  0.56670  Biso   1.000  O
  N28      1.0000 0.35361  0.84855  0.38040  Biso   1.000  N
  H109     1.0000 0.37480  0.82220  0.36920  Biso   1.000  H
  C136     1.0000 0.25662  0.04685  0.51850  Biso   1.000  C
  C137     1.0000 0.31710  0.84380  0.46980  Biso   1.000  C
  C138     1.0000 0.32002  0.79489  0.54920  Biso   1.000  C
  C139     1.0000 0.36037  0.89327  0.30250  Biso   1.000  C
  C140     1.0000 0.32080  0.74427  0.49610  Biso   1.000  C
  H110     1.0000 0.32220  0.74050  0.40960  Biso   1.000  H
  C141     1.0000 0.40426  0.90295  0.22760  Biso   1.000  C
  H111     1.0000 0.43470  0.88220  0.21930  Biso   1.000  H
  C142     1.0000 0.31950  0.80028  0.67820  Biso   1.000  C
  H112     1.0000 0.31830  0.83400  0.71390  Biso   1.000  H
  C143     1.0000 0.27460  0.13563  0.41270  Biso   1.000  C
  C144     1.0000 0.29095  0.09413  0.49290  Biso   1.000  C
  C145     1.0000 0.30750  0.18051  0.40580  Biso   1.000  C
  H113     1.0000 0.29800  0.20820  0.35250  Biso   1.000  H
  C146     1.0000 0.36840  0.14420  0.55220  Biso   1.000  C
  H114     1.0000 0.39940  0.14710  0.59920  Biso   1.000  H
  C147     1.0000 0.33770  0.09860  0.56020  Biso   1.000  C
  H115     1.0000 0.34860  0.07080  0.61130  Biso   1.000  H
  C148     1.0000 0.35340  0.18490  0.47550  Biso   1.000  C
  H116     1.0000 0.37400  0.21550  0.47030  Biso   1.000  H
  N29      1.0000 0.32393  0.93137  0.29110  Biso   1.000  N
  N30      1.0000 0.34484  0.96567  0.20820  Biso   1.000  N
  H117     1.0000 0.32930  0.99430  0.18360  Biso   1.000  H
  C149     1.0000 0.39294  0.94982  0.16850  Biso   1.000  C
  C150     1.0000 0.42320  0.98100  0.07220  Biso   1.000  C
  H118     1.0000 0.40390  0.01270  0.05180  Biso   1.000  H
  H119     1.0000 0.45750  0.99030  0.10500  Biso   1.000  H
  H120     1.0000 0.42770  0.95970  0.99830  Biso   1.000  H
  O31      1.0000 0.28225  0.62264  0.75830  Biso   1.000  O
  O32      1.0000 0.27469  0.49877  0.75390  Biso   1.000  O
  O33      1.0000 0.21148  0.44424  0.68330  Biso   1.000  O
  N31      1.0000 0.35361  0.65145  0.86960  Biso   1.000  N
  H121     1.0000 0.37480  0.67780  0.88080  Biso   1.000  H
  C151     1.0000 0.25662  0.45315  0.73150  Biso   1.000  C
  C152     1.0000 0.31710  0.65620  0.78020  Biso   1.000  C
  C153     1.0000 0.32002  0.70511  0.70080  Biso   1.000  C
  C154     1.0000 0.36037  0.60673  0.94750  Biso   1.000  C
  C155     1.0000 0.32080  0.75573  0.75390  Biso   1.000  C
  H122     1.0000 0.32220  0.75950  0.84040  Biso   1.000  H
  C156     1.0000 0.40426  0.59705  0.02240  Biso   1.000  C
  H123     1.0000 0.43470  0.61780  0.03070  Biso   1.000  H
  C157     1.0000 0.31950  0.69972  0.57180  Biso   1.000  C
  H124     1.0000 0.31830  0.66600  0.53610  Biso   1.000  H
  C158     1.0000 0.27460  0.36437  0.83730  Biso   1.000  C
  C159     1.0000 0.29095  0.40587  0.75710  Biso   1.000  C
  C160     1.0000 0.30750  0.31949  0.84420  Biso   1.000  C
  H125     1.0000 0.29800  0.29180  0.89750  Biso   1.000  H
  C161     1.0000 0.36840  0.35580  0.69780  Biso   1.000  C
  H126     1.0000 0.39940  0.35290  0.65080  Biso   1.000  H
  C162     1.0000 0.33770  0.40140  0.68980  Biso   1.000  C
  H127     1.0000 0.34860  0.42920  0.63870  Biso   1.000  H
  C163     1.0000 0.35340  0.31510  0.77450  Biso   1.000  C
  H128     1.0000 0.37400  0.28450  0.77970  Biso   1.000  H
  N32      1.0000 0.32393  0.56863  0.95890  Biso   1.000  N
  N33      1.0000 0.34484  0.53433  0.04180  Biso   1.000  N
  H129     1.0000 0.32930  0.50570  0.06640  Biso   1.000  H
  C164     1.0000 0.39294  0.55018  0.08150  Biso   1.000  C
  C165     1.0000 0.42320  0.51900  0.17780  Biso   1.000  C
  H130     1.0000 0.40390  0.48730  0.19820  Biso   1.000  H
  H131     1.0000 0.45750  0.50970  0.14500  Biso   1.000  H
  H132     1.0000 0.42770  0.54030  0.25170  Biso   1.000  H
  O34      1.0000 0.21775  0.87736  0.25830  Biso   1.000  O
  O35      1.0000 0.22531  0.00123  0.25390  Biso   1.000  O
  O36      1.0000 0.28852  0.05576  0.18330  Biso   1.000  O
  N34      1.0000 0.14639  0.84855  0.36960  Biso   1.000  N
  H133     1.0000 0.12520  0.82220  0.38080  Biso   1.000  H
  C166     1.0000 0.24338  0.04685  0.23150  Biso   1.000  C
  C167     1.0000 0.18290  0.84380  0.28020  Biso   1.000  C
  C168     1.0000 0.17998  0.79489  0.20080  Biso   1.000  C
  C169     1.0000 0.13963  0.89327  0.44750  Biso   1.000  C
  C170     1.0000 0.17920  0.74427  0.25390  Biso   1.000  C
  H134     1.0000 0.17780  0.74050  0.34040  Biso   1.000  H
  C171     1.0000 0.09574  0.90295  0.52240  Biso   1.000  C
  H135     1.0000 0.06530  0.88220  0.53070  Biso   1.000  H
  C172     1.0000 0.18050  0.80028  0.07180  Biso   1.000  C
  H136     1.0000 0.18170  0.83400  0.03610  Biso   1.000  H
  C173     1.0000 0.22540  0.13563  0.33730  Biso   1.000  C
  C174     1.0000 0.20905  0.09413  0.25710  Biso   1.000  C
  C175     1.0000 0.19250  0.18051  0.34420  Biso   1.000  C
  H137     1.0000 0.20200  0.20820  0.39750  Biso   1.000  H
  C176     1.0000 0.13160  0.14420  0.19780  Biso   1.000  C
  H138     1.0000 0.10060  0.14710  0.15080  Biso   1.000  H
  C177     1.0000 0.16230  0.09860  0.18980  Biso   1.000  C
  H139     1.0000 0.15140  0.07080  0.13870  Biso   1.000  H
  C178     1.0000 0.14660  0.18490  0.27450  Biso   1.000  C
  H140     1.0000 0.12600  0.21550  0.27970  Biso   1.000  H
  N35      1.0000 0.17607  0.93137  0.45890  Biso   1.000  N
  N36      1.0000 0.15516  0.96567  0.54180  Biso   1.000  N
  H141     1.0000 0.17070  0.99430  0.56640  Biso   1.000  H
  C179     1.0000 0.10706  0.94982  0.58150  Biso   1.000  C
  C180     1.0000 0.07680  0.98100  0.67780  Biso   1.000  C
  H142     1.0000 0.09610  0.01270  0.69820  Biso   1.000  H
  H143     1.0000 0.04250  0.99030  0.64500  Biso   1.000  H
  H144     1.0000 0.07230  0.95970  0.75170  Biso   1.000  H
  Co5      1.0000 0.25000  0.56036  0.87500  Biso   1.000  Co
  Co6      1.0000 0.25000  0.93964  0.37500  Biso   1.000  Co
  O37      1.0000 0.71775  0.12264  0.49170  Biso   1.000  O
  O38      1.0000 0.72531  0.99877  0.49610  Biso   1.000  O
  O39      1.0000 0.78852  0.94424  0.56670  Biso   1.000  O
  N37      1.0000 0.64639  0.15145  0.38040  Biso   1.000  N
  H145     1.0000 0.62520  0.17780  0.36920  Biso   1.000  H
  C181     1.0000 0.74338  0.95315  0.51850  Biso   1.000  C
  C182     1.0000 0.68290  0.15620  0.46980  Biso   1.000  C
  C183     1.0000 0.67998  0.20511  0.54920  Biso   1.000  C
  C184     1.0000 0.63963  0.10673  0.30250  Biso   1.000  C
  C185     1.0000 0.67920  0.25573  0.49610  Biso   1.000  C
  H146     1.0000 0.67780  0.25950  0.40960  Biso   1.000  H
  C186     1.0000 0.59574  0.09705  0.22760  Biso   1.000  C
  H147     1.0000 0.56530  0.11780  0.21930  Biso   1.000  H
  C187     1.0000 0.68050  0.19972  0.67820  Biso   1.000  C
  H148     1.0000 0.68170  0.16600  0.71390  Biso   1.000  H
  C188     1.0000 0.72540  0.86437  0.41270  Biso   1.000  C
  C189     1.0000 0.70905  0.90587  0.49290  Biso   1.000  C
  C190     1.0000 0.69250  0.81949  0.40580  Biso   1.000  C
  H149     1.0000 0.70200  0.79180  0.35250  Biso   1.000  H
  C191     1.0000 0.63160  0.85580  0.55220  Biso   1.000  C
  H150     1.0000 0.60060  0.85290  0.59920  Biso   1.000  H
  C192     1.0000 0.66230  0.90140  0.56020  Biso   1.000  C
  H151     1.0000 0.65140  0.92920  0.61130  Biso   1.000  H
  C193     1.0000 0.64660  0.81510  0.47550  Biso   1.000  C
  H152     1.0000 0.62600  0.78450  0.47030  Biso   1.000  H
  N38      1.0000 0.67607  0.06863  0.29110  Biso   1.000  N
  N39      1.0000 0.65516  0.03433  0.20820  Biso   1.000  N
  H153     1.0000 0.67070  0.00570  0.18360  Biso   1.000  H
  C194     1.0000 0.60706  0.05018  0.16850  Biso   1.000  C
  C195     1.0000 0.57680  0.01900  0.07220  Biso   1.000  C
  H154     1.0000 0.59610  0.98730  0.05180  Biso   1.000  H
  H155     1.0000 0.54250  0.00970  0.10500  Biso   1.000  H
  H156     1.0000 0.57230  0.04030  0.99830  Biso   1.000  H
  O40      1.0000 0.78225  0.37736  0.99170  Biso   1.000  O
  O41      1.0000 0.77469  0.50123  0.99610  Biso   1.000  O
  O42      1.0000 0.71148  0.55576  0.06670  Biso   1.000  O
  N40      1.0000 0.85361  0.34855  0.88040  Biso   1.000  N
  H157     1.0000 0.87480  0.32220  0.86920  Biso   1.000  H
  C196     1.0000 0.75662  0.54685  0.01850  Biso   1.000  C
  C197     1.0000 0.81710  0.34380  0.96980  Biso   1.000  C
  C198     1.0000 0.82002  0.29489  0.04920  Biso   1.000  C
  C199     1.0000 0.86037  0.39327  0.80250  Biso   1.000  C
  C200     1.0000 0.82080  0.24427  0.99610  Biso   1.000  C
  H158     1.0000 0.82220  0.24050  0.90960  Biso   1.000  H
  C201     1.0000 0.90426  0.40295  0.72760  Biso   1.000  C
  H159     1.0000 0.93470  0.38220  0.71930  Biso   1.000  H
  C202     1.0000 0.81950  0.30028  0.17820  Biso   1.000  C
  H160     1.0000 0.81830  0.33400  0.21390  Biso   1.000  H
  C203     1.0000 0.77460  0.63563  0.91270  Biso   1.000  C
  C204     1.0000 0.79095  0.59413  0.99290  Biso   1.000  C
  C205     1.0000 0.80750  0.68051  0.90580  Biso   1.000  C
  H161     1.0000 0.79800  0.70820  0.85250  Biso   1.000  H
  C206     1.0000 0.86840  0.64420  0.05220  Biso   1.000  C
  H162     1.0000 0.89940  0.64710  0.09920  Biso   1.000  H
  C207     1.0000 0.83770  0.59860  0.06020  Biso   1.000  C
  H163     1.0000 0.84860  0.57080  0.11130  Biso   1.000  H
  C208     1.0000 0.85340  0.68490  0.97550  Biso   1.000  C
  H164     1.0000 0.87400  0.71550  0.97030  Biso   1.000  H
  N41      1.0000 0.82393  0.43137  0.79110  Biso   1.000  N
  N42      1.0000 0.84484  0.46567  0.70820  Biso   1.000  N
  H165     1.0000 0.82930  0.49430  0.68360  Biso   1.000  H
  C209     1.0000 0.89294  0.44982  0.66850  Biso   1.000  C
  C210     1.0000 0.92320  0.48100  0.57220  Biso   1.000  C
  H166     1.0000 0.90390  0.51270  0.55180  Biso   1.000  H
  H167     1.0000 0.95750  0.49030  0.60500  Biso   1.000  H
  H168     1.0000 0.92770  0.45970  0.49830  Biso   1.000  H
  O43      1.0000 0.78225  0.12264  0.25830  Biso   1.000  O
  O44      1.0000 0.77469  0.99877  0.25390  Biso   1.000  O
  O45      1.0000 0.71148  0.94424  0.18330  Biso   1.000  O
  N43      1.0000 0.85361  0.15145  0.36960  Biso   1.000  N
  H169     1.0000 0.87480  0.17780  0.38080  Biso   1.000  H
  C211     1.0000 0.75662  0.95315  0.23150  Biso   1.000  C
  C212     1.0000 0.81710  0.15620  0.28020  Biso   1.000  C
  C213     1.0000 0.82002  0.20511  0.20080  Biso   1.000  C
  C214     1.0000 0.86037  0.10673  0.44750  Biso   1.000  C
  C215     1.0000 0.82080  0.25573  0.25390  Biso   1.000  C
  H170     1.0000 0.82220  0.25950  0.34040  Biso   1.000  H
  C216     1.0000 0.90426  0.09705  0.52240  Biso   1.000  C
  H171     1.0000 0.93470  0.11780  0.53070  Biso   1.000  H
  C217     1.0000 0.81950  0.19972  0.07180  Biso   1.000  C
  H172     1.0000 0.81830  0.16600  0.03610  Biso   1.000  H
  C218     1.0000 0.77460  0.86437  0.33730  Biso   1.000  C
  C219     1.0000 0.79095  0.90587  0.25710  Biso   1.000  C
  C220     1.0000 0.80750  0.81949  0.34420  Biso   1.000  C
  H173     1.0000 0.79800  0.79180  0.39750  Biso   1.000  H
  C221     1.0000 0.86840  0.85580  0.19780  Biso   1.000  C
  H174     1.0000 0.89940  0.85290  0.15080  Biso   1.000  H
  C222     1.0000 0.83770  0.90140  0.18980  Biso   1.000  C
  H175     1.0000 0.84860  0.92920  0.13870  Biso   1.000  H
  C223     1.0000 0.85340  0.81510  0.27450  Biso   1.000  C
  H176     1.0000 0.87400  0.78450  0.27970  Biso   1.000  H
  N44      1.0000 0.82393  0.06863  0.45890  Biso   1.000  N
  N45      1.0000 0.84484  0.03433  0.54180  Biso   1.000  N
  H177     1.0000 0.82930  0.00570  0.56640  Biso   1.000  H
  C224     1.0000 0.89294  0.05018  0.58150  Biso   1.000  C
  C225     1.0000 0.92320  0.01900  0.67780  Biso   1.000  C
  H178     1.0000 0.90390  0.98730  0.69820  Biso   1.000  H
  H179     1.0000 0.95750  0.00970  0.64500  Biso   1.000  H
  H180     1.0000 0.92770  0.04030  0.75170  Biso   1.000  H
  O46      1.0000 0.71775  0.37736  0.75830  Biso   1.000  O
  O47      1.0000 0.72531  0.50123  0.75390  Biso   1.000  O
  O48      1.0000 0.78852  0.55576  0.68330  Biso   1.000  O
  N46      1.0000 0.64639  0.34855  0.86960  Biso   1.000  N
  H181     1.0000 0.62520  0.32220  0.88080  Biso   1.000  H
  C226     1.0000 0.74338  0.54685  0.73150  Biso   1.000  C
  C227     1.0000 0.68290  0.34380  0.78020  Biso   1.000  C
  C228     1.0000 0.67998  0.29489  0.70080  Biso   1.000  C
  C229     1.0000 0.63963  0.39327  0.94750  Biso   1.000  C
  C230     1.0000 0.67920  0.24427  0.75390  Biso   1.000  C
  H182     1.0000 0.67780  0.24050  0.84040  Biso   1.000  H
  C231     1.0000 0.59574  0.40295  0.02240  Biso   1.000  C
  H183     1.0000 0.56530  0.38220  0.03070  Biso   1.000  H
  C232     1.0000 0.68050  0.30028  0.57180  Biso   1.000  C
  H184     1.0000 0.68170  0.33400  0.53610  Biso   1.000  H
  C233     1.0000 0.72540  0.63563  0.83730  Biso   1.000  C
  C234     1.0000 0.70905  0.59413  0.75710  Biso   1.000  C
  C235     1.0000 0.69250  0.68051  0.84420  Biso   1.000  C
  H185     1.0000 0.70200  0.70820  0.89750  Biso   1.000  H
  C236     1.0000 0.63160  0.64420  0.69780  Biso   1.000  C
  H186     1.0000 0.60060  0.64710  0.65080  Biso   1.000  H
  C237     1.0000 0.66230  0.59860  0.68980  Biso   1.000  C
  H187     1.0000 0.65140  0.57080  0.63870  Biso   1.000  H
  C238     1.0000 0.64660  0.68490  0.77450  Biso   1.000  C
  H188     1.0000 0.62600  0.71550  0.77970  Biso   1.000  H
  N47      1.0000 0.67607  0.43137  0.95890  Biso   1.000  N
  N48      1.0000 0.65516  0.46567  0.04180  Biso   1.000  N
  H189     1.0000 0.67070  0.49430  0.06640  Biso   1.000  H
  C239     1.0000 0.60706  0.44982  0.08150  Biso   1.000  C
  C240     1.0000 0.57680  0.48100  0.17780  Biso   1.000  C
  H190     1.0000 0.59610  0.51270  0.19820  Biso   1.000  H
  H191     1.0000 0.54250  0.49030  0.14500  Biso   1.000  H
  H192     1.0000 0.57230  0.45970  0.25170  Biso   1.000  H
  Co7      1.0000 0.75000  0.06036  0.37500  Biso   1.000  Co
  Co8      1.0000 0.75000  0.43964  0.87500  Biso   1.000  Co
