data_image0
_cell_length_a       20.901
_cell_length_b       9.7122
_cell_length_c       25.5412
_cell_angle_alpha    90
_cell_angle_beta     99.292
_cell_angle_gamma    90

_symmetry_space_group_name_H-M    "P 1"
_symmetry_int_tables_number       1

loop_
  _symmetry_equiv_pos_as_xyz
  'x, y, z'

loop_
  _atom_site_label
  _atom_site_occupancy
  _atom_site_fract_x
  _atom_site_fract_y
  _atom_site_fract_z
  _atom_site_thermal_displace_type
  _atom_site_B_iso_or_equiv
  _atom_site_type_symbol
  C1       1.0000 0.56800  0.89910  0.30449  Biso   1.000  C
  C2       1.0000 0.61570  0.98790  0.33878  Biso   1.000  C
  C3       1.0000 0.63830  0.94820  0.38980  Biso   1.000  C
  H1       1.0000 0.62250  0.86600  0.40330  Biso   1.000  H
  C4       1.0000 0.68370  0.02630  0.42180  Biso   1.000  C
  H2       1.0000 0.69830  0.99860  0.45740  Biso   1.000  H
  C5       1.0000 0.70830  0.14460  0.40244  Biso   1.000  C
  C6       1.0000 0.68540  0.18490  0.35150  Biso   1.000  C
  H3       1.0000 0.70100  0.26740  0.33810  Biso   1.000  H
  C7       1.0000 0.63960  0.10570  0.31950  Biso   1.000  C
  H4       1.0000 0.62460  0.13330  0.28390  Biso   1.000  H
  C8       1.0000 0.81770  0.17490  0.43920  Biso   1.000  C
  C9       1.0000 0.86420  0.26410  0.47450  Biso   1.000  C
  C10      1.0000 0.93090  0.24850  0.48660  Biso   1.000  C
  H5       1.0000 0.95230  0.17520  0.47180  Biso   1.000  H
  C11      1.0000 0.96540  0.34250  0.52060  Biso   1.000  C
  H6       1.0000 0.01100  0.33330  0.52980  Biso   1.000  H
  C12      1.0000 0.93410  0.44970  0.54140  Biso   1.000  C
  H7       1.0000 0.95770  0.51410  0.56500  Biso   1.000  H
  C13      1.0000 0.86757  0.46130  0.52702  Biso   1.000  C
  C14      1.0000 0.82390  0.56320  0.54651  Biso   1.000  C
  C15      1.0000 0.71350  0.62790  0.54160  Biso   1.000  C
  C16      1.0000 0.70270  0.62280  0.59392  Biso   1.000  C
  H8       1.0000 0.72780  0.56310  0.61860  Biso   1.000  H
  C17      1.0000 0.65580  0.70400  0.60970  Biso   1.000  C
  H9       1.0000 0.64990  0.70210  0.64580  Biso   1.000  H
  C18      1.0000 0.61710  0.78850  0.57464  Biso   1.000  C
  C19      1.0000 0.62620  0.78980  0.52190  Biso   1.000  C
  H10      1.0000 0.59940  0.84560  0.49680  Biso   1.000  H
  C20      1.0000 0.67430  0.71030  0.50585  Biso   1.000  C
  H11      1.0000 0.68050  0.71230  0.46980  Biso   1.000  H
  C21      1.0000 0.57010  0.88600  0.59270  Biso   1.000  C
  C22      1.0000 0.88790  0.94800  0.67787  Biso   1.000  C
  C23      1.0000 0.84110  0.03580  0.64251  Biso   1.000  C
  C24      1.0000 0.78980  0.97570  0.60924  Biso   1.000  C
  H12      1.0000 0.78270  0.87930  0.61060  Biso   1.000  H
  C25      1.0000 0.74900  0.05740  0.57400  Biso   1.000  C
  H13      1.0000 0.71460  0.01590  0.55050  Biso   1.000  H
  C26      1.0000 0.75770  0.19940  0.57255  Biso   1.000  C
  C27      1.0000 0.80750  0.25850  0.60788  Biso   1.000  C
  H14      1.0000 0.81280  0.35560  0.60860  Biso   1.000  H
  C28      1.0000 0.84920  0.17680  0.64203  Biso   1.000  C
  H15      1.0000 0.88390  0.21800  0.66540  Biso   1.000  H
  C29      1.0000 0.65440  0.28180  0.53491  Biso   1.000  C
  C30      1.0000 0.61779  0.35180  0.48732  Biso   1.000  C
  C31      1.0000 0.55120  0.36340  0.47370  Biso   1.000  C
  H16      1.0000 0.52290  0.32450  0.49540  Biso   1.000  H
  C32      1.0000 0.52700  0.43320  0.42780  Biso   1.000  C
  H17      1.0000 0.48150  0.44350  0.41780  Biso   1.000  H
  C33      1.0000 0.56800  0.48830  0.39614  Biso   1.000  C
  H18      1.0000 0.55130  0.53550  0.36430  Biso   1.000  H
  C34      1.0000 0.63390  0.47330  0.41181  Biso   1.000  C
  C35      1.0000 0.68750  0.52980  0.38569  Biso   1.000  C
  C36      1.0000 0.80110  0.56140  0.39634  Biso   1.000  C
  C37      1.0000 0.81790  0.69700  0.40850  Biso   1.000  C
  H19      1.0000 0.79220  0.75040  0.42840  Biso   1.000  H
  C38      1.0000 0.87120  0.75520  0.39210  Biso   1.000  C
  H20      1.0000 0.88210  0.84850  0.40050  Biso   1.000  H
  C39      1.0000 0.90920  0.67830  0.36329  Biso   1.000  C
  C40      1.0000 0.89350  0.54190  0.35160  Biso   1.000  C
  H21      1.0000 0.91940  0.48840  0.33190  Biso   1.000  H
  C41      1.0000 0.83970  0.48370  0.36860  Biso   1.000  C
  H22      1.0000 0.82940  0.38970  0.36120  Biso   1.000  H
  C42      1.0000 0.96590  0.74030  0.34310  Biso   1.000  C
  N1       1.0000 0.75737  0.22070  0.43542  Biso   1.000  N
  N2       1.0000 0.83514  0.36830  0.49446  Biso   1.000  N
  N3       1.0000 0.76218  0.54600  0.52404  Biso   1.000  N
  N4       1.0000 0.74532  0.50270  0.41344  Biso   1.000  N
  N5       1.0000 0.65654  0.40520  0.45650  Biso   1.000  N
  N6       1.0000 0.71775  0.27990  0.53365  Biso   1.000  N
  O1       1.0000 0.67564  0.59570  0.34342  Biso   1.000  O
  O2       1.0000 0.62614  0.23440  0.57056  Biso   1.000  O
  O3       1.0000 0.83723  0.07300  0.41719  Biso   1.000  O
  O4       1.0000 0.84572  0.65020  0.58105  Biso   1.000  O
  O5       1.0000 0.54077  0.80040  0.32464  Biso   1.000  O
  O6       1.0000 0.55551  0.92160  0.25554  Biso   1.000  O
  O7       1.0000 0.53304  0.94760  0.55383  Biso   1.000  O
  H23      1.0000 0.51510  0.01570  0.56560  Biso   1.000  H
  O8       1.0000 0.56750  0.90600  0.63944  Biso   1.000  O
  O9       1.0000 0.87098  0.83140  0.69235  Biso   1.000  O
  O10      1.0000 0.94525  0.98940  0.69200  Biso   1.000  O
  O11      1.0000 0.97205  0.87250  0.35314  Biso   1.000  O
  H24      1.0000 0.00670  0.90120  0.34430  Biso   1.000  H
  O12      1.0000 0.00244  0.67590  0.32036  Biso   1.000  O
  Co1      1.0000 0.74577  0.38703  0.47614  Biso   1.000  Co
  Eu1      1.0000 0.98032  0.76959  0.73878  Biso   1.000  Eu
  C43      1.0000 0.06800  0.60090  0.80449  Biso   1.000  C
  C44      1.0000 0.11570  0.51210  0.83878  Biso   1.000  C
  C45      1.0000 0.13830  0.55180  0.88980  Biso   1.000  C
  H25      1.0000 0.12250  0.63400  0.90330  Biso   1.000  H
  C46      1.0000 0.18370  0.47370  0.92180  Biso   1.000  C
  H26      1.0000 0.19830  0.50140  0.95740  Biso   1.000  H
  C47      1.0000 0.20830  0.35540  0.90244  Biso   1.000  C
  C48      1.0000 0.18540  0.31510  0.85150  Biso   1.000  C
  H27      1.0000 0.20100  0.23260  0.83810  Biso   1.000  H
  C49      1.0000 0.13960  0.39430  0.81950  Biso   1.000  C
  H28      1.0000 0.12460  0.36670  0.78390  Biso   1.000  H
  C50      1.0000 0.31770  0.32510  0.93920  Biso   1.000  C
  C51      1.0000 0.36420  0.23590  0.97450  Biso   1.000  C
  C52      1.0000 0.43090  0.25150  0.98660  Biso   1.000  C
  H29      1.0000 0.45230  0.32480  0.97180  Biso   1.000  H
  C53      1.0000 0.46540  0.15750  0.02060  Biso   1.000  C
  H30      1.0000 0.51100  0.16670  0.02980  Biso   1.000  H
  C54      1.0000 0.43410  0.05030  0.04140  Biso   1.000  C
  H31      1.0000 0.45770  0.98590  0.06500  Biso   1.000  H
  C55      1.0000 0.36757  0.03870  0.02702  Biso   1.000  C
  C56      1.0000 0.32390  0.93680  0.04651  Biso   1.000  C
  C57      1.0000 0.21350  0.87210  0.04160  Biso   1.000  C
  C58      1.0000 0.20270  0.87720  0.09392  Biso   1.000  C
  H32      1.0000 0.22780  0.93690  0.11860  Biso   1.000  H
  C59      1.0000 0.15580  0.79600  0.10970  Biso   1.000  C
  H33      1.0000 0.14990  0.79790  0.14580  Biso   1.000  H
  C60      1.0000 0.11710  0.71150  0.07464  Biso   1.000  C
  C61      1.0000 0.12620  0.71020  0.02190  Biso   1.000  C
  H34      1.0000 0.09940  0.65440  0.99680  Biso   1.000  H
  C62      1.0000 0.17430  0.78970  0.00585  Biso   1.000  C
  H35      1.0000 0.18050  0.78770  0.96980  Biso   1.000  H
  C63      1.0000 0.07010  0.61400  0.09270  Biso   1.000  C
  C64      1.0000 0.38790  0.55200  0.17787  Biso   1.000  C
  C65      1.0000 0.34110  0.46420  0.14251  Biso   1.000  C
  C66      1.0000 0.28980  0.52430  0.10924  Biso   1.000  C
  H36      1.0000 0.28270  0.62070  0.11060  Biso   1.000  H
  C67      1.0000 0.24900  0.44260  0.07400  Biso   1.000  C
  H37      1.0000 0.21460  0.48410  0.05050  Biso   1.000  H
  C68      1.0000 0.25770  0.30060  0.07255  Biso   1.000  C
  C69      1.0000 0.30750  0.24150  0.10788  Biso   1.000  C
  H38      1.0000 0.31280  0.14440  0.10860  Biso   1.000  H
  C70      1.0000 0.34920  0.32320  0.14203  Biso   1.000  C
  H39      1.0000 0.38390  0.28200  0.16540  Biso   1.000  H
  C71      1.0000 0.15440  0.21820  0.03491  Biso   1.000  C
  C72      1.0000 0.11779  0.14820  0.98732  Biso   1.000  C
  C73      1.0000 0.05120  0.13660  0.97370  Biso   1.000  C
  H40      1.0000 0.02290  0.17550  0.99540  Biso   1.000  H
  C74      1.0000 0.02700  0.06680  0.92780  Biso   1.000  C
  H41      1.0000 0.98150  0.05650  0.91780  Biso   1.000  H
  C75      1.0000 0.06800  0.01170  0.89614  Biso   1.000  C
  H42      1.0000 0.05130  0.96450  0.86430  Biso   1.000  H
  C76      1.0000 0.13390  0.02670  0.91181  Biso   1.000  C
  C77      1.0000 0.18750  0.97020  0.88569  Biso   1.000  C
  C78      1.0000 0.30110  0.93860  0.89634  Biso   1.000  C
  C79      1.0000 0.31790  0.80300  0.90850  Biso   1.000  C
  H43      1.0000 0.29220  0.74960  0.92840  Biso   1.000  H
  C80      1.0000 0.37120  0.74480  0.89210  Biso   1.000  C
  H44      1.0000 0.38210  0.65150  0.90050  Biso   1.000  H
  C81      1.0000 0.40920  0.82170  0.86329  Biso   1.000  C
  C82      1.0000 0.39350  0.95810  0.85160  Biso   1.000  C
  H45      1.0000 0.41940  0.01160  0.83190  Biso   1.000  H
  C83      1.0000 0.33970  0.01630  0.86860  Biso   1.000  C
  H46      1.0000 0.32940  0.11030  0.86120  Biso   1.000  H
  C84      1.0000 0.46590  0.75970  0.84310  Biso   1.000  C
  N7       1.0000 0.25737  0.27930  0.93542  Biso   1.000  N
  N8       1.0000 0.33514  0.13170  0.99446  Biso   1.000  N
  N9       1.0000 0.26218  0.95400  0.02404  Biso   1.000  N
  N10      1.0000 0.24532  0.99730  0.91344  Biso   1.000  N
  N11      1.0000 0.15654  0.09480  0.95650  Biso   1.000  N
  N12      1.0000 0.21775  0.22010  0.03365  Biso   1.000  N
  O13      1.0000 0.17564  0.90430  0.84342  Biso   1.000  O
  O14      1.0000 0.12614  0.26560  0.07056  Biso   1.000  O
  O15      1.0000 0.33723  0.42700  0.91719  Biso   1.000  O
  O16      1.0000 0.34572  0.84980  0.08105  Biso   1.000  O
  O17      1.0000 0.04077  0.69960  0.82464  Biso   1.000  O
  O18      1.0000 0.05551  0.57840  0.75554  Biso   1.000  O
  O19      1.0000 0.03304  0.55240  0.05383  Biso   1.000  O
  H47      1.0000 0.01510  0.48430  0.06560  Biso   1.000  H
  O20      1.0000 0.06750  0.59400  0.13944  Biso   1.000  O
  O21      1.0000 0.37098  0.66860  0.19235  Biso   1.000  O
  O22      1.0000 0.44525  0.51060  0.19200  Biso   1.000  O
  O23      1.0000 0.47205  0.62750  0.85314  Biso   1.000  O
  H48      1.0000 0.50670  0.59880  0.84430  Biso   1.000  H
  O24      1.0000 0.50244  0.82410  0.82036  Biso   1.000  O
  Co2      1.0000 0.24577  0.11297  0.97614  Biso   1.000  Co
  Eu2      1.0000 0.48032  0.73041  0.23878  Biso   1.000  Eu
  C85      1.0000 0.93200  0.39910  0.19551  Biso   1.000  C
  C86      1.0000 0.88430  0.48790  0.16122  Biso   1.000  C
  C87      1.0000 0.86170  0.44820  0.11020  Biso   1.000  C
  H49      1.0000 0.87750  0.36600  0.09670  Biso   1.000  H
  C88      1.0000 0.81630  0.52630  0.07820  Biso   1.000  C
  H50      1.0000 0.80170  0.49860  0.04260  Biso   1.000  H
  C89      1.0000 0.79170  0.64460  0.09756  Biso   1.000  C
  C90      1.0000 0.81460  0.68490  0.14850  Biso   1.000  C
  H51      1.0000 0.79900  0.76740  0.16190  Biso   1.000  H
  C91      1.0000 0.86040  0.60570  0.18050  Biso   1.000  C
  H52      1.0000 0.87540  0.63330  0.21610  Biso   1.000  H
  C92      1.0000 0.68230  0.67490  0.06080  Biso   1.000  C
  C93      1.0000 0.63580  0.76410  0.02550  Biso   1.000  C
  C94      1.0000 0.56910  0.74850  0.01340  Biso   1.000  C
  H53      1.0000 0.54770  0.67520  0.02820  Biso   1.000  H
  C95      1.0000 0.53460  0.84250  0.97940  Biso   1.000  C
  H54      1.0000 0.48900  0.83330  0.97020  Biso   1.000  H
  C96      1.0000 0.56590  0.94970  0.95860  Biso   1.000  C
  H55      1.0000 0.54230  0.01410  0.93500  Biso   1.000  H
  C97      1.0000 0.63243  0.96130  0.97298  Biso   1.000  C
  C98      1.0000 0.67610  0.06320  0.95349  Biso   1.000  C
  C99      1.0000 0.78650  0.12790  0.95840  Biso   1.000  C
  C100     1.0000 0.79730  0.12280  0.90608  Biso   1.000  C
  H56      1.0000 0.77220  0.06310  0.88140  Biso   1.000  H
  C101     1.0000 0.84420  0.20400  0.89030  Biso   1.000  C
  H57      1.0000 0.85010  0.20210  0.85420  Biso   1.000  H
  C102     1.0000 0.88290  0.28850  0.92536  Biso   1.000  C
  C103     1.0000 0.87380  0.28980  0.97810  Biso   1.000  C
  H58      1.0000 0.90060  0.34560  0.00320  Biso   1.000  H
  C104     1.0000 0.82570  0.21030  0.99415  Biso   1.000  C
  H59      1.0000 0.81950  0.21230  0.03020  Biso   1.000  H
  C105     1.0000 0.92990  0.38600  0.90730  Biso   1.000  C
  C106     1.0000 0.61210  0.44800  0.82213  Biso   1.000  C
  C107     1.0000 0.65890  0.53580  0.85749  Biso   1.000  C
  C108     1.0000 0.71020  0.47570  0.89076  Biso   1.000  C
  H60      1.0000 0.71730  0.37930  0.88940  Biso   1.000  H
  C109     1.0000 0.75100  0.55740  0.92600  Biso   1.000  C
  H61      1.0000 0.78540  0.51590  0.94950  Biso   1.000  H
  C110     1.0000 0.74230  0.69940  0.92745  Biso   1.000  C
  C111     1.0000 0.69250  0.75850  0.89212  Biso   1.000  C
  H62      1.0000 0.68720  0.85560  0.89140  Biso   1.000  H
  C112     1.0000 0.65080  0.67680  0.85797  Biso   1.000  C
  H63      1.0000 0.61610  0.71800  0.83460  Biso   1.000  H
  C113     1.0000 0.84560  0.78180  0.96509  Biso   1.000  C
  C114     1.0000 0.88221  0.85180  0.01268  Biso   1.000  C
  C115     1.0000 0.94880  0.86340  0.02630  Biso   1.000  C
  H64      1.0000 0.97710  0.82450  0.00460  Biso   1.000  H
  C116     1.0000 0.97300  0.93320  0.07220  Biso   1.000  C
  H65      1.0000 0.01850  0.94350  0.08220  Biso   1.000  H
  C117     1.0000 0.93200  0.98830  0.10386  Biso   1.000  C
  H66      1.0000 0.94870  0.03550  0.13570  Biso   1.000  H
  C118     1.0000 0.86610  0.97330  0.08819  Biso   1.000  C
  C119     1.0000 0.81250  0.02980  0.11431  Biso   1.000  C
  C120     1.0000 0.69890  0.06140  0.10366  Biso   1.000  C
  C121     1.0000 0.68210  0.19700  0.09150  Biso   1.000  C
  H67      1.0000 0.70780  0.25040  0.07160  Biso   1.000  H
  C122     1.0000 0.62880  0.25520  0.10790  Biso   1.000  C
  H68      1.0000 0.61790  0.34850  0.09950  Biso   1.000  H
  C123     1.0000 0.59080  0.17830  0.13671  Biso   1.000  C
  C124     1.0000 0.60650  0.04190  0.14840  Biso   1.000  C
  H69      1.0000 0.58060  0.98840  0.16810  Biso   1.000  H
  C125     1.0000 0.66030  0.98370  0.13140  Biso   1.000  C
  H70      1.0000 0.67060  0.88970  0.13880  Biso   1.000  H
  C126     1.0000 0.53410  0.24030  0.15690  Biso   1.000  C
  N13      1.0000 0.74263  0.72070  0.06458  Biso   1.000  N
  N14      1.0000 0.66486  0.86830  0.00554  Biso   1.000  N
  N15      1.0000 0.73782  0.04600  0.97596  Biso   1.000  N
  N16      1.0000 0.75468  0.00270  0.08656  Biso   1.000  N
  N17      1.0000 0.84346  0.90520  0.04350  Biso   1.000  N
  N18      1.0000 0.78225  0.77990  0.96635  Biso   1.000  N
  O25      1.0000 0.82436  0.09570  0.15658  Biso   1.000  O
  O26      1.0000 0.87386  0.73440  0.92944  Biso   1.000  O
  O27      1.0000 0.66277  0.57300  0.08281  Biso   1.000  O
  O28      1.0000 0.65428  0.15020  0.91895  Biso   1.000  O
  O29      1.0000 0.95923  0.30040  0.17536  Biso   1.000  O
  O30      1.0000 0.94449  0.42160  0.24446  Biso   1.000  O
  O31      1.0000 0.96696  0.44760  0.94617  Biso   1.000  O
  H71      1.0000 0.98490  0.51570  0.93440  Biso   1.000  H
  O32      1.0000 0.93250  0.40600  0.86056  Biso   1.000  O
  O33      1.0000 0.62902  0.33140  0.80765  Biso   1.000  O
  O34      1.0000 0.55475  0.48940  0.80800  Biso   1.000  O
  O35      1.0000 0.52795  0.37250  0.14686  Biso   1.000  O
  H72      1.0000 0.49330  0.40120  0.15570  Biso   1.000  H
  O36      1.0000 0.49756  0.17590  0.17964  Biso   1.000  O
  Co3      1.0000 0.75423  0.88703  0.02386  Biso   1.000  Co
  Eu3      1.0000 0.51968  0.26959  0.76122  Biso   1.000  Eu
  C127     1.0000 0.43200  0.10090  0.69551  Biso   1.000  C
  C128     1.0000 0.38430  0.01210  0.66122  Biso   1.000  C
  C129     1.0000 0.36170  0.05180  0.61020  Biso   1.000  C
  H73      1.0000 0.37750  0.13400  0.59670  Biso   1.000  H
  C130     1.0000 0.31630  0.97370  0.57820  Biso   1.000  C
  H74      1.0000 0.30170  0.00140  0.54260  Biso   1.000  H
  C131     1.0000 0.29170  0.85540  0.59756  Biso   1.000  C
  C132     1.0000 0.31460  0.81510  0.64850  Biso   1.000  C
  H75      1.0000 0.29900  0.73260  0.66190  Biso   1.000  H
  C133     1.0000 0.36040  0.89430  0.68050  Biso   1.000  C
  H76      1.0000 0.37540  0.86670  0.71610  Biso   1.000  H
  C134     1.0000 0.18230  0.82510  0.56080  Biso   1.000  C
  C135     1.0000 0.13580  0.73590  0.52550  Biso   1.000  C
  C136     1.0000 0.06910  0.75150  0.51340  Biso   1.000  C
  H77      1.0000 0.04770  0.82480  0.52820  Biso   1.000  H
  C137     1.0000 0.03460  0.65750  0.47940  Biso   1.000  C
  H78      1.0000 0.98900  0.66670  0.47020  Biso   1.000  H
  C138     1.0000 0.06590  0.55030  0.45860  Biso   1.000  C
  H79      1.0000 0.04230  0.48590  0.43500  Biso   1.000  H
  C139     1.0000 0.13243  0.53870  0.47298  Biso   1.000  C
  C140     1.0000 0.17610  0.43680  0.45349  Biso   1.000  C
  C141     1.0000 0.28650  0.37210  0.45840  Biso   1.000  C
  C142     1.0000 0.29730  0.37720  0.40608  Biso   1.000  C
  H80      1.0000 0.27220  0.43690  0.38140  Biso   1.000  H
  C143     1.0000 0.34420  0.29600  0.39030  Biso   1.000  C
  H81      1.0000 0.35010  0.29790  0.35420  Biso   1.000  H
  C144     1.0000 0.38290  0.21150  0.42536  Biso   1.000  C
  C145     1.0000 0.37380  0.21020  0.47810  Biso   1.000  C
  H82      1.0000 0.40060  0.15440  0.50320  Biso   1.000  H
  C146     1.0000 0.32570  0.28970  0.49415  Biso   1.000  C
  H83      1.0000 0.31950  0.28770  0.53020  Biso   1.000  H
  C147     1.0000 0.42990  0.11400  0.40730  Biso   1.000  C
  C148     1.0000 0.11210  0.05200  0.32213  Biso   1.000  C
  C149     1.0000 0.15890  0.96420  0.35749  Biso   1.000  C
  C150     1.0000 0.21020  0.02430  0.39076  Biso   1.000  C
  H84      1.0000 0.21730  0.12070  0.38940  Biso   1.000  H
  C151     1.0000 0.25100  0.94260  0.42600  Biso   1.000  C
  H85      1.0000 0.28540  0.98410  0.44950  Biso   1.000  H
  C152     1.0000 0.24230  0.80060  0.42745  Biso   1.000  C
  C153     1.0000 0.19250  0.74150  0.39212  Biso   1.000  C
  H86      1.0000 0.18720  0.64440  0.39140  Biso   1.000  H
  C154     1.0000 0.15080  0.82320  0.35797  Biso   1.000  C
  H87      1.0000 0.11610  0.78200  0.33460  Biso   1.000  H
  C155     1.0000 0.34560  0.71820  0.46509  Biso   1.000  C
  C156     1.0000 0.38221  0.64820  0.51268  Biso   1.000  C
  C157     1.0000 0.44880  0.63660  0.52630  Biso   1.000  C
  H88      1.0000 0.47710  0.67550  0.50460  Biso   1.000  H
  C158     1.0000 0.47300  0.56680  0.57220  Biso   1.000  C
  H89      1.0000 0.51850  0.55650  0.58220  Biso   1.000  H
  C159     1.0000 0.43200  0.51170  0.60386  Biso   1.000  C
  H90      1.0000 0.44870  0.46450  0.63570  Biso   1.000  H
  C160     1.0000 0.36610  0.52670  0.58819  Biso   1.000  C
  C161     1.0000 0.31250  0.47020  0.61431  Biso   1.000  C
  C162     1.0000 0.19890  0.43860  0.60366  Biso   1.000  C
  C163     1.0000 0.18210  0.30300  0.59150  Biso   1.000  C
  H91      1.0000 0.20780  0.24960  0.57160  Biso   1.000  H
  C164     1.0000 0.12880  0.24480  0.60790  Biso   1.000  C
  H92      1.0000 0.11790  0.15150  0.59950  Biso   1.000  H
  C165     1.0000 0.09080  0.32170  0.63671  Biso   1.000  C
  C166     1.0000 0.10650  0.45810  0.64840  Biso   1.000  C
  H93      1.0000 0.08060  0.51160  0.66810  Biso   1.000  H
  C167     1.0000 0.16030  0.51630  0.63140  Biso   1.000  C
  H94      1.0000 0.17060  0.61030  0.63880  Biso   1.000  H
  C168     1.0000 0.03410  0.25970  0.65690  Biso   1.000  C
  N19      1.0000 0.24263  0.77930  0.56458  Biso   1.000  N
  N20      1.0000 0.16486  0.63170  0.50554  Biso   1.000  N
  N21      1.0000 0.23782  0.45400  0.47596  Biso   1.000  N
  N22      1.0000 0.25468  0.49730  0.58656  Biso   1.000  N
  N23      1.0000 0.34346  0.59480  0.54350  Biso   1.000  N
  N24      1.0000 0.28225  0.72010  0.46635  Biso   1.000  N
  O37      1.0000 0.32436  0.40430  0.65658  Biso   1.000  O
  O38      1.0000 0.37386  0.76560  0.42944  Biso   1.000  O
  O39      1.0000 0.16277  0.92700  0.58281  Biso   1.000  O
  O40      1.0000 0.15428  0.34980  0.41895  Biso   1.000  O
  O41      1.0000 0.45923  0.19960  0.67536  Biso   1.000  O
  O42      1.0000 0.44449  0.07840  0.74446  Biso   1.000  O
  O43      1.0000 0.46696  0.05240  0.44617  Biso   1.000  O
  H95      1.0000 0.48490  0.98430  0.43440  Biso   1.000  H
  O44      1.0000 0.43250  0.09400  0.36056  Biso   1.000  O
  O45      1.0000 0.12902  0.16860  0.30765  Biso   1.000  O
  O46      1.0000 0.05475  0.01060  0.30800  Biso   1.000  O
  O47      1.0000 0.02795  0.12750  0.64686  Biso   1.000  O
  H96      1.0000 0.99330  0.09880  0.65570  Biso   1.000  H
  O48      1.0000 0.99756  0.32410  0.67964  Biso   1.000  O
  Co4      1.0000 0.25423  0.61297  0.52386  Biso   1.000  Co
  Eu4      1.0000 0.01968  0.23041  0.26122  Biso   1.000  Eu
