data_image0
_cell_length_a       14.1613
_cell_length_b       21.6112
_cell_length_c       15.3855
_cell_angle_alpha    90
_cell_angle_beta     114.339
_cell_angle_gamma    90

_symmetry_space_group_name_H-M    "P 1"
_symmetry_int_tables_number       1

loop_
  _symmetry_equiv_pos_as_xyz
  'x, y, z'

loop_
  _atom_site_label
  _atom_site_occupancy
  _atom_site_fract_x
  _atom_site_fract_y
  _atom_site_fract_z
  _atom_site_thermal_displace_type
  _atom_site_B_iso_or_equiv
  _atom_site_type_symbol
  Fe1      1.0000 0.42461  0.26480  0.60308  Biso   1.000  Fe
  O1       1.0000 0.27670  0.34204  0.95670  Biso   1.000  O
  O2       1.0000 0.50410  0.17642  0.32200  Biso   1.000  O
  N1       1.0000 0.36235  0.23793  0.77260  Biso   1.000  N
  H1       1.0000 0.36930  0.19790  0.77620  Biso   1.000  H
  N2       1.0000 0.37990  0.27334  0.70939  Biso   1.000  N
  N3       1.0000 0.40041  0.35270  0.59997  Biso   1.000  N
  N4       1.0000 0.45707  0.28944  0.49630  Biso   1.000  N
  N5       1.0000 0.48587  0.26079  0.43342  Biso   1.000  N
  H2       1.0000 0.49630  0.22110  0.43310  Biso   1.000  H
  N6       1.0000 0.64639  0.30726  0.73138  Biso   1.000  N
  H3       1.0000 0.63550  0.34690  0.73080  Biso   1.000  H
  N7       1.0000 0.57285  0.26497  0.68834  Biso   1.000  N
  N8       1.0000 0.45596  0.17765  0.60698  Biso   1.000  N
  N9       1.0000 0.28810  0.23125  0.51786  Biso   1.000  N
  N10      1.0000 0.19169  0.25247  0.47045  Biso   1.000  N
  H4       1.0000 0.17410  0.29130  0.46520  Biso   1.000  H
  C1       1.0000 0.24900  0.38050  0.01880  Biso   1.000  C
  H5       1.0000 0.22460  0.42020  0.98860  Biso   1.000  H
  H6       1.0000 0.30920  0.38660  0.07840  Biso   1.000  H
  H7       1.0000 0.19460  0.36050  0.03140  Biso   1.000  H
  C2       1.0000 0.28100  0.27990  0.96950  Biso   1.000  C
  C3       1.0000 0.25800  0.25090  0.03920  Biso   1.000  C
  H8       1.0000 0.24090  0.27480  0.08180  Biso   1.000  H
  C4       1.0000 0.26020  0.18820  0.04610  Biso   1.000  C
  H9       1.0000 0.24460  0.16930  0.09360  Biso   1.000  H
  C5       1.0000 0.28460  0.15200  0.98510  Biso   1.000  C
  H10      1.0000 0.28470  0.10860  0.98940  Biso   1.000  H
  C6       1.0000 0.30950  0.18120  0.91640  Biso   1.000  C
  H11      1.0000 0.32810  0.15670  0.87550  Biso   1.000  H
  C7       1.0000 0.30790  0.24460  0.90610  Biso   1.000  C
  C8       1.0000 0.33170  0.27335  0.83160  Biso   1.000  C
  C9       1.0000 0.33110  0.33372  0.80390  Biso   1.000  C
  H12      1.0000 0.31460  0.36890  0.83080  Biso   1.000  H
  C10      1.0000 0.36000  0.33215  0.72700  Biso   1.000  C
  C11      1.0000 0.37180  0.37848  0.66460  Biso   1.000  C
  C12      1.0000 0.35600  0.44185  0.66490  Biso   1.000  C
  H13      1.0000 0.33580  0.46010  0.71010  Biso   1.000  H
  C13      1.0000 0.37090  0.47776  0.59600  Biso   1.000  C
  H14      1.0000 0.36070  0.52080  0.59490  Biso   1.000  H
  C14      1.0000 0.40000  0.45133  0.53030  Biso   1.000  C
  H15      1.0000 0.40880  0.47550  0.48340  Biso   1.000  H
  C15      1.0000 0.41630  0.38784  0.53450  Biso   1.000  C
  C16      1.0000 0.44890  0.34940  0.47357  Biso   1.000  C
  C17      1.0000 0.47360  0.35872  0.39510  Biso   1.000  C
  H16      1.0000 0.47430  0.39660  0.36530  Biso   1.000  H
  C18      1.0000 0.49670  0.30108  0.37072  Biso   1.000  C
  C19      1.0000 0.52500  0.28064  0.29310  Biso   1.000  C
  C20      1.0000 0.54960  0.32670  0.24110  Biso   1.000  C
  H17      1.0000 0.54810  0.36860  0.25690  Biso   1.000  H
  C21      1.0000 0.57600  0.31040  0.16620  Biso   1.000  C
  H18      1.0000 0.59290  0.34120  0.13180  Biso   1.000  H
  C22      1.0000 0.57700  0.24870  0.14320  Biso   1.000  C
  H19      1.0000 0.59340  0.23750  0.09200  Biso   1.000  H
  C23      1.0000 0.55410  0.20330  0.19480  Biso   1.000  C
  H20      1.0000 0.55620  0.16130  0.17960  Biso   1.000  H
  C24      1.0000 0.52820  0.21984  0.26860  Biso   1.000  C
  C25      1.0000 0.50080  0.11300  0.29410  Biso   1.000  C
  H21      1.0000 0.47490  0.08770  0.33160  Biso   1.000  H
  H22      1.0000 0.56990  0.09940  0.30460  Biso   1.000  H
  H23      1.0000 0.45520  0.10890  0.22700  Biso   1.000  H
  C26      1.0000 0.73980  0.28000  0.77570  Biso   1.000  C
  H24      1.0000 0.80270  0.30040  0.81080  Biso   1.000  H
  C27      1.0000 0.72740  0.21850  0.76120  Biso   1.000  C
  H25      1.0000 0.77900  0.18790  0.78370  Biso   1.000  H
  C28      1.0000 0.62110  0.20991  0.70524  Biso   1.000  C
  C29      1.0000 0.55410  0.15854  0.65810  Biso   1.000  C
  C30      1.0000 0.58120  0.09726  0.65750  Biso   1.000  C
  H26      1.0000 0.64970  0.08400  0.69290  Biso   1.000  H
  C31      1.0000 0.50490  0.05557  0.60350  Biso   1.000  C
  H27      1.0000 0.52190  0.01360  0.60230  Biso   1.000  H
  C32      1.0000 0.40440  0.07521  0.55160  Biso   1.000  C
  H28      1.0000 0.35280  0.04720  0.51440  Biso   1.000  H
  C33      1.0000 0.38140  0.13757  0.55577  Biso   1.000  C
  C34      1.0000 0.28240  0.16915  0.50810  Biso   1.000  C
  C35      1.0000 0.17970  0.15127  0.45440  Biso   1.000  C
  H29      1.0000 0.15390  0.11090  0.43750  Biso   1.000  H
  C36      1.0000 0.12560  0.20510  0.43200  Biso   1.000  C
  H30      1.0000 0.05380  0.20880  0.39560  Biso   1.000  H
  Fe2      1.0000 0.07539  0.76480  0.89692  Biso   1.000  Fe
  O3       1.0000 0.22330  0.84204  0.54330  Biso   1.000  O
  O4       1.0000 0.99590  0.67642  0.17800  Biso   1.000  O
  N11      1.0000 0.13765  0.73793  0.72740  Biso   1.000  N
  H31      1.0000 0.13070  0.69790  0.72380  Biso   1.000  H
  N12      1.0000 0.12010  0.77334  0.79061  Biso   1.000  N
  N13      1.0000 0.09959  0.85270  0.90003  Biso   1.000  N
  N14      1.0000 0.04293  0.78944  0.00370  Biso   1.000  N
  N15      1.0000 0.01413  0.76079  0.06658  Biso   1.000  N
  H32      1.0000 0.00370  0.72110  0.06690  Biso   1.000  H
  N16      1.0000 0.85361  0.80726  0.76862  Biso   1.000  N
  H33      1.0000 0.86450  0.84690  0.76920  Biso   1.000  H
  N17      1.0000 0.92715  0.76497  0.81166  Biso   1.000  N
  N18      1.0000 0.04404  0.67765  0.89302  Biso   1.000  N
  N19      1.0000 0.21190  0.73125  0.98214  Biso   1.000  N
  N20      1.0000 0.30831  0.75247  0.02955  Biso   1.000  N
  H34      1.0000 0.32590  0.79130  0.03480  Biso   1.000  H
  C37      1.0000 0.25100  0.88050  0.48120  Biso   1.000  C
  H35      1.0000 0.27540  0.92020  0.51140  Biso   1.000  H
  H36      1.0000 0.19080  0.88660  0.42160  Biso   1.000  H
  H37      1.0000 0.30540  0.86050  0.46860  Biso   1.000  H
  C38      1.0000 0.21900  0.77990  0.53050  Biso   1.000  C
  C39      1.0000 0.24200  0.75090  0.46080  Biso   1.000  C
  H38      1.0000 0.25910  0.77480  0.41820  Biso   1.000  H
  C40      1.0000 0.23980  0.68820  0.45390  Biso   1.000  C
  H39      1.0000 0.25540  0.66930  0.40640  Biso   1.000  H
  C41      1.0000 0.21540  0.65200  0.51490  Biso   1.000  C
  H40      1.0000 0.21530  0.60860  0.51060  Biso   1.000  H
  C42      1.0000 0.19050  0.68120  0.58360  Biso   1.000  C
  H41      1.0000 0.17190  0.65670  0.62450  Biso   1.000  H
  C43      1.0000 0.19210  0.74460  0.59390  Biso   1.000  C
  C44      1.0000 0.16830  0.77335  0.66840  Biso   1.000  C
  C45      1.0000 0.16890  0.83372  0.69610  Biso   1.000  C
  H42      1.0000 0.18540  0.86890  0.66920  Biso   1.000  H
  C46      1.0000 0.14000  0.83215  0.77300  Biso   1.000  C
  C47      1.0000 0.12820  0.87848  0.83540  Biso   1.000  C
  C48      1.0000 0.14400  0.94185  0.83510  Biso   1.000  C
  H43      1.0000 0.16420  0.96010  0.78990  Biso   1.000  H
  C49      1.0000 0.12910  0.97776  0.90400  Biso   1.000  C
  H44      1.0000 0.13930  0.02080  0.90510  Biso   1.000  H
  C50      1.0000 0.10000  0.95133  0.96970  Biso   1.000  C
  H45      1.0000 0.09120  0.97550  0.01660  Biso   1.000  H
  C51      1.0000 0.08370  0.88784  0.96550  Biso   1.000  C
  C52      1.0000 0.05110  0.84940  0.02643  Biso   1.000  C
  C53      1.0000 0.02640  0.85872  0.10490  Biso   1.000  C
  H46      1.0000 0.02570  0.89660  0.13470  Biso   1.000  H
  C54      1.0000 0.00330  0.80108  0.12928  Biso   1.000  C
  C55      1.0000 0.97500  0.78064  0.20690  Biso   1.000  C
  C56      1.0000 0.95040  0.82670  0.25890  Biso   1.000  C
  H47      1.0000 0.95190  0.86860  0.24310  Biso   1.000  H
  C57      1.0000 0.92400  0.81040  0.33380  Biso   1.000  C
  H48      1.0000 0.90710  0.84120  0.36820  Biso   1.000  H
  C58      1.0000 0.92300  0.74870  0.35680  Biso   1.000  C
  H49      1.0000 0.90660  0.73750  0.40800  Biso   1.000  H
  C59      1.0000 0.94590  0.70330  0.30520  Biso   1.000  C
  H50      1.0000 0.94380  0.66130  0.32040  Biso   1.000  H
  C60      1.0000 0.97180  0.71984  0.23140  Biso   1.000  C
  C61      1.0000 0.99920  0.61300  0.20590  Biso   1.000  C
  H51      1.0000 0.02510  0.58770  0.16840  Biso   1.000  H
  H52      1.0000 0.93010  0.59940  0.19540  Biso   1.000  H
  H53      1.0000 0.04480  0.60890  0.27300  Biso   1.000  H
  C62      1.0000 0.76020  0.78000  0.72430  Biso   1.000  C
  H54      1.0000 0.69730  0.80040  0.68920  Biso   1.000  H
  C63      1.0000 0.77260  0.71850  0.73880  Biso   1.000  C
  H55      1.0000 0.72100  0.68790  0.71630  Biso   1.000  H
  C64      1.0000 0.87890  0.70991  0.79476  Biso   1.000  C
  C65      1.0000 0.94590  0.65854  0.84190  Biso   1.000  C
  C66      1.0000 0.91880  0.59726  0.84250  Biso   1.000  C
  H56      1.0000 0.85030  0.58400  0.80710  Biso   1.000  H
  C67      1.0000 0.99510  0.55557  0.89650  Biso   1.000  C
  H57      1.0000 0.97810  0.51360  0.89770  Biso   1.000  H
  C68      1.0000 0.09560  0.57521  0.94840  Biso   1.000  C
  H58      1.0000 0.14720  0.54720  0.98560  Biso   1.000  H
  C69      1.0000 0.11860  0.63757  0.94423  Biso   1.000  C
  C70      1.0000 0.21760  0.66915  0.99190  Biso   1.000  C
  C71      1.0000 0.32030  0.65127  0.04560  Biso   1.000  C
  H59      1.0000 0.34610  0.61090  0.06250  Biso   1.000  H
  C72      1.0000 0.37440  0.70510  0.06800  Biso   1.000  C
  H60      1.0000 0.44620  0.70880  0.10440  Biso   1.000  H
  Fe3      1.0000 0.57539  0.73520  0.39692  Biso   1.000  Fe
  O5       1.0000 0.72330  0.65796  0.04330  Biso   1.000  O
  O6       1.0000 0.49590  0.82358  0.67800  Biso   1.000  O
  N21      1.0000 0.63765  0.76207  0.22740  Biso   1.000  N
  H61      1.0000 0.63070  0.80210  0.22380  Biso   1.000  H
  N22      1.0000 0.62010  0.72666  0.29061  Biso   1.000  N
  N23      1.0000 0.59959  0.64730  0.40003  Biso   1.000  N
  N24      1.0000 0.54293  0.71056  0.50370  Biso   1.000  N
  N25      1.0000 0.51413  0.73921  0.56658  Biso   1.000  N
  H62      1.0000 0.50370  0.77890  0.56690  Biso   1.000  H
  N26      1.0000 0.35361  0.69274  0.26862  Biso   1.000  N
  H63      1.0000 0.36450  0.65310  0.26920  Biso   1.000  H
  N27      1.0000 0.42715  0.73503  0.31166  Biso   1.000  N
  N28      1.0000 0.54404  0.82235  0.39302  Biso   1.000  N
  N29      1.0000 0.71190  0.76875  0.48214  Biso   1.000  N
  N30      1.0000 0.80831  0.74753  0.52955  Biso   1.000  N
  H64      1.0000 0.82590  0.70870  0.53480  Biso   1.000  H
  C73      1.0000 0.75100  0.61950  0.98120  Biso   1.000  C
  H65      1.0000 0.77540  0.57980  0.01140  Biso   1.000  H
  H66      1.0000 0.69080  0.61340  0.92160  Biso   1.000  H
  H67      1.0000 0.80540  0.63950  0.96860  Biso   1.000  H
  C74      1.0000 0.71900  0.72010  0.03050  Biso   1.000  C
  C75      1.0000 0.74200  0.74910  0.96080  Biso   1.000  C
  H68      1.0000 0.75910  0.72520  0.91820  Biso   1.000  H
  C76      1.0000 0.73980  0.81180  0.95390  Biso   1.000  C
  H69      1.0000 0.75540  0.83070  0.90640  Biso   1.000  H
  C77      1.0000 0.71540  0.84800  0.01490  Biso   1.000  C
  H70      1.0000 0.71530  0.89140  0.01060  Biso   1.000  H
  C78      1.0000 0.69050  0.81880  0.08360  Biso   1.000  C
  H71      1.0000 0.67190  0.84330  0.12450  Biso   1.000  H
  C79      1.0000 0.69210  0.75540  0.09390  Biso   1.000  C
  C80      1.0000 0.66830  0.72665  0.16840  Biso   1.000  C
  C81      1.0000 0.66890  0.66628  0.19610  Biso   1.000  C
  H72      1.0000 0.68540  0.63110  0.16920  Biso   1.000  H
  C82      1.0000 0.64000  0.66785  0.27300  Biso   1.000  C
  C83      1.0000 0.62820  0.62152  0.33540  Biso   1.000  C
  C84      1.0000 0.64400  0.55815  0.33510  Biso   1.000  C
  H73      1.0000 0.66420  0.53990  0.28990  Biso   1.000  H
  C85      1.0000 0.62910  0.52224  0.40400  Biso   1.000  C
  H74      1.0000 0.63930  0.47920  0.40510  Biso   1.000  H
  C86      1.0000 0.60000  0.54867  0.46970  Biso   1.000  C
  H75      1.0000 0.59120  0.52450  0.51660  Biso   1.000  H
  C87      1.0000 0.58370  0.61216  0.46550  Biso   1.000  C
  C88      1.0000 0.55110  0.65060  0.52643  Biso   1.000  C
  C89      1.0000 0.52640  0.64128  0.60490  Biso   1.000  C
  H76      1.0000 0.52570  0.60340  0.63470  Biso   1.000  H
  C90      1.0000 0.50330  0.69892  0.62928  Biso   1.000  C
  C91      1.0000 0.47500  0.71936  0.70690  Biso   1.000  C
  C92      1.0000 0.45040  0.67330  0.75890  Biso   1.000  C
  H77      1.0000 0.45190  0.63140  0.74310  Biso   1.000  H
  C93      1.0000 0.42400  0.68960  0.83380  Biso   1.000  C
  H78      1.0000 0.40710  0.65880  0.86820  Biso   1.000  H
  C94      1.0000 0.42300  0.75130  0.85680  Biso   1.000  C
  H79      1.0000 0.40660  0.76250  0.90800  Biso   1.000  H
  C95      1.0000 0.44590  0.79670  0.80520  Biso   1.000  C
  H80      1.0000 0.44380  0.83870  0.82040  Biso   1.000  H
  C96      1.0000 0.47180  0.78016  0.73140  Biso   1.000  C
  C97      1.0000 0.49920  0.88700  0.70590  Biso   1.000  C
  H81      1.0000 0.52510  0.91230  0.66840  Biso   1.000  H
  H82      1.0000 0.43010  0.90060  0.69540  Biso   1.000  H
  H83      1.0000 0.54480  0.89110  0.77300  Biso   1.000  H
  C98      1.0000 0.26020  0.72000  0.22430  Biso   1.000  C
  H84      1.0000 0.19730  0.69960  0.18920  Biso   1.000  H
  C99      1.0000 0.27260  0.78150  0.23880  Biso   1.000  C
  H85      1.0000 0.22100  0.81210  0.21630  Biso   1.000  H
  C100     1.0000 0.37890  0.79009  0.29476  Biso   1.000  C
  C101     1.0000 0.44590  0.84146  0.34190  Biso   1.000  C
  C102     1.0000 0.41880  0.90274  0.34250  Biso   1.000  C
  H86      1.0000 0.35030  0.91600  0.30710  Biso   1.000  H
  C103     1.0000 0.49510  0.94443  0.39650  Biso   1.000  C
  H87      1.0000 0.47810  0.98640  0.39770  Biso   1.000  H
  C104     1.0000 0.59560  0.92479  0.44840  Biso   1.000  C
  H88      1.0000 0.64720  0.95280  0.48560  Biso   1.000  H
  C105     1.0000 0.61860  0.86243  0.44423  Biso   1.000  C
  C106     1.0000 0.71760  0.83085  0.49190  Biso   1.000  C
  C107     1.0000 0.82030  0.84873  0.54560  Biso   1.000  C
  H89      1.0000 0.84610  0.88910  0.56250  Biso   1.000  H
  C108     1.0000 0.87440  0.79490  0.56800  Biso   1.000  C
  H90      1.0000 0.94620  0.79120  0.60440  Biso   1.000  H
  Fe4      1.0000 0.92461  0.23520  0.10308  Biso   1.000  Fe
  O7       1.0000 0.77670  0.15796  0.45670  Biso   1.000  O
  O8       1.0000 0.00410  0.32358  0.82200  Biso   1.000  O
  N31      1.0000 0.86235  0.26207  0.27260  Biso   1.000  N
  H91      1.0000 0.86930  0.30210  0.27620  Biso   1.000  H
  N32      1.0000 0.87990  0.22666  0.20939  Biso   1.000  N
  N33      1.0000 0.90041  0.14730  0.09997  Biso   1.000  N
  N34      1.0000 0.95707  0.21056  0.99630  Biso   1.000  N
  N35      1.0000 0.98587  0.23921  0.93342  Biso   1.000  N
  H92      1.0000 0.99630  0.27890  0.93310  Biso   1.000  H
  N36      1.0000 0.14639  0.19274  0.23138  Biso   1.000  N
  H93      1.0000 0.13550  0.15310  0.23080  Biso   1.000  H
  N37      1.0000 0.07285  0.23503  0.18834  Biso   1.000  N
  N38      1.0000 0.95596  0.32235  0.10698  Biso   1.000  N
  N39      1.0000 0.78810  0.26875  0.01786  Biso   1.000  N
  N40      1.0000 0.69169  0.24753  0.97045  Biso   1.000  N
  H94      1.0000 0.67410  0.20870  0.96520  Biso   1.000  H
  C109     1.0000 0.74900  0.11950  0.51880  Biso   1.000  C
  H95      1.0000 0.72460  0.07980  0.48860  Biso   1.000  H
  H96      1.0000 0.80920  0.11340  0.57840  Biso   1.000  H
  H97      1.0000 0.69460  0.13950  0.53140  Biso   1.000  H
  C110     1.0000 0.78100  0.22010  0.46950  Biso   1.000  C
  C111     1.0000 0.75800  0.24910  0.53920  Biso   1.000  C
  H98      1.0000 0.74090  0.22520  0.58180  Biso   1.000  H
  C112     1.0000 0.76020  0.31180  0.54610  Biso   1.000  C
  H99      1.0000 0.74460  0.33070  0.59360  Biso   1.000  H
  C113     1.0000 0.78460  0.34800  0.48510  Biso   1.000  C
  H100     1.0000 0.78470  0.39140  0.48940  Biso   1.000  H
  C114     1.0000 0.80950  0.31880  0.41640  Biso   1.000  C
  H101     1.0000 0.82810  0.34330  0.37550  Biso   1.000  H
  C115     1.0000 0.80790  0.25540  0.40610  Biso   1.000  C
  C116     1.0000 0.83170  0.22665  0.33160  Biso   1.000  C
  C117     1.0000 0.83110  0.16628  0.30390  Biso   1.000  C
  H102     1.0000 0.81460  0.13110  0.33080  Biso   1.000  H
  C118     1.0000 0.86000  0.16785  0.22700  Biso   1.000  C
  C119     1.0000 0.87180  0.12152  0.16460  Biso   1.000  C
  C120     1.0000 0.85600  0.05815  0.16490  Biso   1.000  C
  H103     1.0000 0.83580  0.03990  0.21010  Biso   1.000  H
  C121     1.0000 0.87090  0.02224  0.09600  Biso   1.000  C
  H104     1.0000 0.86070  0.97920  0.09490  Biso   1.000  H
  C122     1.0000 0.90000  0.04867  0.03030  Biso   1.000  C
  H105     1.0000 0.90880  0.02450  0.98340  Biso   1.000  H
  C123     1.0000 0.91630  0.11216  0.03450  Biso   1.000  C
  C124     1.0000 0.94890  0.15060  0.97357  Biso   1.000  C
  C125     1.0000 0.97360  0.14128  0.89510  Biso   1.000  C
  H106     1.0000 0.97430  0.10340  0.86530  Biso   1.000  H
  C126     1.0000 0.99670  0.19892  0.87072  Biso   1.000  C
  C127     1.0000 0.02500  0.21936  0.79310  Biso   1.000  C
  C128     1.0000 0.04960  0.17330  0.74110  Biso   1.000  C
  H107     1.0000 0.04810  0.13140  0.75690  Biso   1.000  H
  C129     1.0000 0.07600  0.18960  0.66620  Biso   1.000  C
  H108     1.0000 0.09290  0.15880  0.63180  Biso   1.000  H
  C130     1.0000 0.07700  0.25130  0.64320  Biso   1.000  C
  H109     1.0000 0.09340  0.26250  0.59200  Biso   1.000  H
  C131     1.0000 0.05410  0.29670  0.69480  Biso   1.000  C
  H110     1.0000 0.05620  0.33870  0.67960  Biso   1.000  H
  C132     1.0000 0.02820  0.28016  0.76860  Biso   1.000  C
  C133     1.0000 0.00080  0.38700  0.79410  Biso   1.000  C
  H111     1.0000 0.97490  0.41230  0.83160  Biso   1.000  H
  H112     1.0000 0.06990  0.40060  0.80460  Biso   1.000  H
  H113     1.0000 0.95520  0.39110  0.72700  Biso   1.000  H
  C134     1.0000 0.23980  0.22000  0.27570  Biso   1.000  C
  H114     1.0000 0.30270  0.19960  0.31080  Biso   1.000  H
  C135     1.0000 0.22740  0.28150  0.26120  Biso   1.000  C
  H115     1.0000 0.27900  0.31210  0.28370  Biso   1.000  H
  C136     1.0000 0.12110  0.29009  0.20524  Biso   1.000  C
  C137     1.0000 0.05410  0.34146  0.15810  Biso   1.000  C
  C138     1.0000 0.08120  0.40274  0.15750  Biso   1.000  C
  H116     1.0000 0.14970  0.41600  0.19290  Biso   1.000  H
  C139     1.0000 0.00490  0.44443  0.10350  Biso   1.000  C
  H117     1.0000 0.02190  0.48640  0.10230  Biso   1.000  H
  C140     1.0000 0.90440  0.42479  0.05160  Biso   1.000  C
  H118     1.0000 0.85280  0.45280  0.01440  Biso   1.000  H
  C141     1.0000 0.88140  0.36243  0.05577  Biso   1.000  C
  C142     1.0000 0.78240  0.33085  0.00810  Biso   1.000  C
  C143     1.0000 0.67970  0.34873  0.95440  Biso   1.000  C
  H119     1.0000 0.65390  0.38910  0.93750  Biso   1.000  H
  C144     1.0000 0.62560  0.29490  0.93200  Biso   1.000  C
  H120     1.0000 0.55380  0.29120  0.89560  Biso   1.000  H
