data_image0
_cell_length_a       13.593
_cell_length_b       17.194
_cell_length_c       18.45
_cell_angle_alpha    99.319
_cell_angle_beta     100.076
_cell_angle_gamma    107.842

_symmetry_space_group_name_H-M    "P 1"
_symmetry_int_tables_number       1

loop_
  _symmetry_equiv_pos_as_xyz
  'x, y, z'

loop_
  _atom_site_label
  _atom_site_occupancy
  _atom_site_fract_x
  _atom_site_fract_y
  _atom_site_fract_z
  _atom_site_thermal_displace_type
  _atom_site_B_iso_or_equiv
  _atom_site_type_symbol
  N1       1.0000 0.90000  0.88090  0.00230  Biso   1.000  N
  C1       1.0000 0.82770  0.82080  0.99770  Biso   1.000  C
  N2       1.0000 0.89790  0.05600  0.05580  Biso   1.000  N
  N3       1.0000 0.10960  0.44520  0.44450  Biso   1.000  N
  S1       1.0000 0.71710  0.74740  0.98980  Biso   1.000  S
  N4       1.0000 0.89050  0.99250  0.88960  Biso   1.000  N
  C2       1.0000 0.87300  0.12390  0.03640  Biso   1.000  C
  H1       1.0000 0.89810  0.14600  0.99640  Biso   1.000  H
  C3       1.0000 0.81710  0.15730  0.07120  Biso   1.000  C
  H2       1.0000 0.81110  0.20850  0.06180  Biso   1.000  H
  C4       1.0000 0.85610  0.03070  0.10760  Biso   1.000  C
  H3       1.0000 0.87220  0.98600  0.12510  Biso   1.000  H
  C5       1.0000 0.79120  0.06180  0.13970  Biso   1.000  C
  H4       1.0000 0.76230  0.03800  0.17760  Biso   1.000  H
  C6       1.0000 0.76730  0.12310  0.12010  Biso   1.000  C
  C7       1.0000 0.70090  0.16410  0.15940  Biso   1.000  C
  C8       1.0000 0.64260  0.18890  0.18550  Biso   1.000  C
  C9       1.0000 0.57440  0.22360  0.22190  Biso   1.000  C
  C10      1.0000 0.57170  0.21910  0.29620  Biso   1.000  C
  H5       1.0000 0.61580  0.19470  0.32310  Biso   1.000  H
  C11      1.0000 0.50440  0.25040  0.33090  Biso   1.000  C
  H6       1.0000 0.50260  0.24740  0.38160  Biso   1.000  H
  C12      1.0000 0.43990  0.28620  0.29140  Biso   1.000  C
  C13      1.0000 0.44260  0.29070  0.21720  Biso   1.000  C
  H7       1.0000 0.39840  0.31520  0.19020  Biso   1.000  H
  C14      1.0000 0.50980  0.25940  0.18250  Biso   1.000  C
  H8       1.0000 0.51170  0.26240  0.13170  Biso   1.000  H
  C15      1.0000 0.37400  0.32310  0.32910  Biso   1.000  C
  C16      1.0000 0.32170  0.34420  0.35310  Biso   1.000  C
  C17      1.0000 0.23840  0.37880  0.38450  Biso   1.000  C
  C18      1.0000 0.19220  0.34260  0.44190  Biso   1.000  C
  H9       1.0000 0.21240  0.30010  0.46080  Biso   1.000  H
  C19      1.0000 0.11730  0.37200  0.46860  Biso   1.000  C
  H10      1.0000 0.07530  0.34580  0.49980  Biso   1.000  H
  C20      1.0000 0.15510  0.47550  0.39970  Biso   1.000  C
  H11      1.0000 0.14420  0.52320  0.38500  Biso   1.000  H
  C21      1.0000 0.22090  0.44200  0.37040  Biso   1.000  C
  H12      1.0000 0.25650  0.46870  0.33630  Biso   1.000  H
  C22      1.0000 0.79780  0.93950  0.86680  Biso   1.000  C
  H13      1.0000 0.77680  0.89880  0.89550  Biso   1.000  H
  C23      1.0000 0.72570  0.93620  0.80450  Biso   1.000  C
  H14      1.0000 0.65430  0.89900  0.79420  Biso   1.000  H
  C24      1.0000 0.75570  0.98540  0.75790  Biso   1.000  C
  C25      1.0000 0.85780  0.04780  0.78130  Biso   1.000  C
  H15      1.0000 0.87840  0.08680  0.75100  Biso   1.000  H
  C26      1.0000 0.92650  0.05330  0.84550  Biso   1.000  C
  H16      1.0000 0.99540  0.09510  0.86120  Biso   1.000  H
  C27      1.0000 0.68430  0.98650  0.69150  Biso   1.000  C
  C28      1.0000 0.62730  0.99860  0.64190  Biso   1.000  C
  C29      1.0000 0.56160  0.99620  0.56800  Biso   1.000  C
  C30      1.0000 0.47390  0.93190  0.53480  Biso   1.000  C
  H17      1.0000 0.45220  0.88530  0.55710  Biso   1.000  H
  C31      1.0000 0.41050  0.93410  0.46250  Biso   1.000  C
  H18      1.0000 0.34940  0.88690  0.43630  Biso   1.000  H
  N5       1.0000 0.10000  0.11910  0.99770  Biso   1.000  N
  C32      1.0000 0.17230  0.17920  0.00230  Biso   1.000  C
  N6       1.0000 0.10210  0.94400  0.94420  Biso   1.000  N
  N7       1.0000 0.89040  0.55480  0.55550  Biso   1.000  N
  S2       1.0000 0.28290  0.25260  0.01020  Biso   1.000  S
  N8       1.0000 0.10950  0.00750  0.11040  Biso   1.000  N
  C33      1.0000 0.12700  0.87610  0.96360  Biso   1.000  C
  H19      1.0000 0.10190  0.85400  0.00360  Biso   1.000  H
  C34      1.0000 0.18290  0.84270  0.92880  Biso   1.000  C
  H20      1.0000 0.18890  0.79150  0.93820  Biso   1.000  H
  C35      1.0000 0.14390  0.96930  0.89240  Biso   1.000  C
  H21      1.0000 0.12780  0.01400  0.87490  Biso   1.000  H
  C36      1.0000 0.20880  0.93820  0.86030  Biso   1.000  C
  H22      1.0000 0.23770  0.96200  0.82240  Biso   1.000  H
  C37      1.0000 0.23270  0.87690  0.87990  Biso   1.000  C
  C38      1.0000 0.29910  0.83590  0.84060  Biso   1.000  C
  C39      1.0000 0.35740  0.81110  0.81450  Biso   1.000  C
  C40      1.0000 0.42560  0.77640  0.77810  Biso   1.000  C
  C41      1.0000 0.42830  0.78090  0.70380  Biso   1.000  C
  H23      1.0000 0.38420  0.80530  0.67690  Biso   1.000  H
  C42      1.0000 0.49560  0.74960  0.66910  Biso   1.000  C
  H24      1.0000 0.49740  0.75260  0.61840  Biso   1.000  H
  C43      1.0000 0.56010  0.71380  0.70860  Biso   1.000  C
  C44      1.0000 0.55740  0.70930  0.78280  Biso   1.000  C
  H25      1.0000 0.60160  0.68480  0.80980  Biso   1.000  H
  C45      1.0000 0.49020  0.74060  0.81750  Biso   1.000  C
  H26      1.0000 0.48830  0.73760  0.86830  Biso   1.000  H
  C46      1.0000 0.62600  0.67690  0.67090  Biso   1.000  C
  C47      1.0000 0.67830  0.65580  0.64690  Biso   1.000  C
  C48      1.0000 0.76160  0.62120  0.61550  Biso   1.000  C
  C49      1.0000 0.80780  0.65740  0.55810  Biso   1.000  C
  H27      1.0000 0.78760  0.69990  0.53920  Biso   1.000  H
  C50      1.0000 0.88270  0.62800  0.53140  Biso   1.000  C
  H28      1.0000 0.92470  0.65420  0.50020  Biso   1.000  H
  C51      1.0000 0.84490  0.52450  0.60030  Biso   1.000  C
  H29      1.0000 0.85580  0.47680  0.61500  Biso   1.000  H
  C52      1.0000 0.77910  0.55800  0.62960  Biso   1.000  C
  H30      1.0000 0.74350  0.53130  0.66370  Biso   1.000  H
  C53      1.0000 0.20220  0.06050  0.13320  Biso   1.000  C
  H31      1.0000 0.22320  0.10120  0.10450  Biso   1.000  H
  C54      1.0000 0.27430  0.06380  0.19550  Biso   1.000  C
  H32      1.0000 0.34570  0.10100  0.20580  Biso   1.000  H
  C55      1.0000 0.24430  0.01460  0.24210  Biso   1.000  C
  C56      1.0000 0.14220  0.95220  0.21870  Biso   1.000  C
  H33      1.0000 0.12160  0.91320  0.24900  Biso   1.000  H
  C57      1.0000 0.07350  0.94670  0.15450  Biso   1.000  C
  H34      1.0000 0.00460  0.90490  0.13880  Biso   1.000  H
  C58      1.0000 0.31570  0.01350  0.30850  Biso   1.000  C
  C59      1.0000 0.37270  0.00140  0.35810  Biso   1.000  C
  C60      1.0000 0.43840  0.00380  0.43200  Biso   1.000  C
  C61      1.0000 0.52610  0.06810  0.46520  Biso   1.000  C
  H35      1.0000 0.54780  0.11470  0.44290  Biso   1.000  H
  C62      1.0000 0.58950  0.06590  0.53750  Biso   1.000  C
  H36      1.0000 0.65060  0.11310  0.56370  Biso   1.000  H
  Co1      1.0000 0.00000  0.00000  0.00000  Biso   1.000  Co
