data_image0
_cell_length_a       13.3962
_cell_length_b       19.3637
_cell_length_c       22.587
_cell_angle_alpha    90
_cell_angle_beta     90
_cell_angle_gamma    90

_symmetry_space_group_name_H-M    "P 1"
_symmetry_int_tables_number       1

loop_
  _symmetry_equiv_pos_as_xyz
  'x, y, z'

loop_
  _atom_site_label
  _atom_site_occupancy
  _atom_site_fract_x
  _atom_site_fract_y
  _atom_site_fract_z
  _atom_site_thermal_displace_type
  _atom_site_B_iso_or_equiv
  _atom_site_type_symbol
  Au1      1.0000 0.01106  0.75785  0.20754  Biso   1.000  Au
  Au2      1.0000 0.83874  0.58193  0.35282  Biso   1.000  Au
  N1       1.0000 0.82270  0.55200  0.21810  Biso   1.000  N
  N2       1.0000 0.79620  0.70450  0.18170  Biso   1.000  N
  C1       1.0000 0.66830  0.61989  0.15220  Biso   1.000  C
  C2       1.0000 0.69632  0.68136  0.17928  Biso   1.000  C
  C3       1.0000 0.62503  0.72212  0.20716  Biso   1.000  C
  H1       1.0000 0.64420  0.76410  0.22570  Biso   1.000  H
  C4       1.0000 0.52570  0.70140  0.20797  Biso   1.000  C
  H2       1.0000 0.47700  0.72930  0.22700  Biso   1.000  H
  C5       1.0000 0.49766  0.63994  0.18090  Biso   1.000  C
  C6       1.0000 0.56895  0.59917  0.15300  Biso   1.000  C
  C7       1.0000 0.54092  0.53771  0.12592  Biso   1.000  C
  H3       1.0000 0.58960  0.50990  0.10690  Biso   1.000  H
  C8       1.0000 0.44160  0.51699  0.12672  Biso   1.000  C
  H4       1.0000 0.42240  0.47500  0.10820  Biso   1.000  H
  C9       1.0000 0.37028  0.55780  0.15461  Biso   1.000  C
  H5       1.0000 0.30240  0.54360  0.15520  Biso   1.000  H
  C10      1.0000 0.39831  0.61922  0.18170  Biso   1.000  C
  H6       1.0000 0.34960  0.64710  0.20080  Biso   1.000  H
  C11      1.0000 0.90510  0.50340  0.06951  Biso   1.000  C
  H7       1.0000 0.95770  0.47740  0.05220  Biso   1.000  H
  C12      1.0000 0.89570  0.50652  0.13073  Biso   1.000  C
  H8       1.0000 0.94180  0.48270  0.15530  Biso   1.000  H
  C13      1.0000 0.81877  0.54456  0.15608  Biso   1.000  C
  C14      1.0000 0.75124  0.57946  0.12021  Biso   1.000  C
  C15      1.0000 0.76060  0.57633  0.05897  Biso   1.000  C
  C16      1.0000 0.83760  0.53831  0.03363  Biso   1.000  C
  C17      1.0000 0.84690  0.53518  0.97239  Biso   1.000  C
  H9       1.0000 0.89950  0.50920  0.95510  Biso   1.000  H
  C18      1.0000 0.77940  0.57009  0.93651  Biso   1.000  C
  H10      1.0000 0.78580  0.56800  0.89470  Biso   1.000  H
  C19      1.0000 0.70250  0.60811  0.96186  Biso   1.000  C
  H11      1.0000 0.65630  0.63200  0.93730  Biso   1.000  H
  C20      1.0000 0.69310  0.61124  0.02310  Biso   1.000  C
  H12      1.0000 0.64050  0.63720  0.04040  Biso   1.000  H
  C21      1.0000 0.85580  0.60192  0.44164  Biso   1.000  C
  C22      1.0000 0.95130  0.60107  0.46562  Biso   1.000  C
  H13      1.0000 0.00690  0.58940  0.44140  Biso   1.000  H
  C23      1.0000 0.96560  0.61731  0.52496  Biso   1.000  C
  H14      1.0000 0.03090  0.61670  0.54140  Biso   1.000  H
  C24      1.0000 0.88440  0.63440  0.56032  Biso   1.000  C
  H15      1.0000 0.89410  0.64550  0.60090  Biso   1.000  H
  C25      1.0000 0.78880  0.63520  0.53634  Biso   1.000  C
  H16      1.0000 0.73330  0.64690  0.56050  Biso   1.000  H
  C26      1.0000 0.77450  0.61901  0.47700  Biso   1.000  C
  H17      1.0000 0.70920  0.61960  0.46060  Biso   1.000  H
  C27      1.0000 0.14820  0.80288  0.22981  Biso   1.000  C
  C28      1.0000 0.22900  0.79596  0.19168  Biso   1.000  C
  H18      1.0000 0.22300  0.76870  0.15690  Biso   1.000  H
  C29      1.0000 0.31860  0.82896  0.20442  Biso   1.000  C
  H19      1.0000 0.37380  0.82420  0.17840  Biso   1.000  H
  C30      1.0000 0.32730  0.86893  0.25527  Biso   1.000  C
  H20      1.0000 0.38860  0.89150  0.26400  Biso   1.000  H
  C31      1.0000 0.24650  0.87586  0.29340  Biso   1.000  C
  H21      1.0000 0.25250  0.90320  0.32820  Biso   1.000  H
  C32      1.0000 0.15690  0.84285  0.28067  Biso   1.000  C
  H22      1.0000 0.10170  0.84760  0.30670  Biso   1.000  H
  C33      1.0000 0.87580  0.72450  0.18790  Biso   1.000  C
  C34      1.0000 0.82660  0.56350  0.26820  Biso   1.000  C
  Au3      1.0000 0.92720  0.73155  0.33532  Biso   1.000  Au
  Au4      1.0000 0.09156  0.63540  0.13578  Biso   1.000  Au
  N3       1.0000 0.13910  0.66560  0.34640  Biso   1.000  N
  N4       1.0000 0.11810  0.55190  0.25140  Biso   1.000  N
  C35      1.0000 0.25960  0.57340  0.34550  Biso   1.000  C
  C36      1.0000 0.17530  0.51980  0.35020  Biso   1.000  C
  C37      1.0000 0.53582  0.58300  0.33221  Biso   1.000  C
  H23      1.0000 0.58690  0.61690  0.32940  Biso   1.000  H
  C38      1.0000 0.56032  0.51330  0.33209  Biso   1.000  C
  H24      1.0000 0.62820  0.49950  0.32920  Biso   1.000  H
  C39      1.0000 0.48551  0.46376  0.33617  Biso   1.000  C
  H25      1.0000 0.50230  0.41610  0.33610  Biso   1.000  H
  C40      1.0000 0.38621  0.48400  0.34036  Biso   1.000  C
  H26      1.0000 0.33510  0.45020  0.34320  Biso   1.000  H
  C41      1.0000 0.36173  0.55375  0.34047  Biso   1.000  C
  C42      1.0000 0.43652  0.60328  0.33639  Biso   1.000  C
  C43      1.0000 0.41204  0.67303  0.33651  Biso   1.000  C
  H27      1.0000 0.46320  0.70690  0.33370  Biso   1.000  H
  C44      1.0000 0.31275  0.69327  0.34070  Biso   1.000  C
  H28      1.0000 0.29600  0.74090  0.34080  Biso   1.000  H
  C45      1.0000 0.23794  0.64375  0.34477  Biso   1.000  C
  C46      1.0000 0.07220  0.39036  0.45537  Biso   1.000  C
  H29      1.0000 0.02020  0.35710  0.45710  Biso   1.000  H
  C47      1.0000 0.13570  0.39909  0.50346  Biso   1.000  C
  H30      1.0000 0.12710  0.37170  0.53800  Biso   1.000  H
  C48      1.0000 0.21180  0.44783  0.50101  Biso   1.000  C
  H31      1.0000 0.25520  0.45380  0.53390  Biso   1.000  H
  C49      1.0000 0.22440  0.48782  0.45044  Biso   1.000  C
  H32      1.0000 0.27640  0.52110  0.44880  Biso   1.000  H
  C50      1.0000 0.16090  0.47909  0.40235  Biso   1.000  C
  C51      1.0000 0.08480  0.43035  0.40482  Biso   1.000  C
  C52      1.0000 0.02130  0.42161  0.35673  Biso   1.000  C
  H33      1.0000 0.96930  0.38830  0.35840  Biso   1.000  H
  C53      1.0000 0.03387  0.46161  0.30617  Biso   1.000  C
  H34      1.0000 0.99050  0.45560  0.27330  Biso   1.000  H
  C54      1.0000 0.10994  0.51035  0.30371  Biso   1.000  C
  C55      1.0000 0.79620  0.78500  0.32704  Biso   1.000  C
  C56      1.0000 0.71090  0.76541  0.35781  Biso   1.000  C
  H35      1.0000 0.71210  0.72570  0.38250  Biso   1.000  H
  C57      1.0000 0.62380  0.80395  0.35248  Biso   1.000  C
  H36      1.0000 0.56550  0.79060  0.37350  Biso   1.000  H
  C58      1.0000 0.62200  0.86208  0.31641  Biso   1.000  C
  H37      1.0000 0.56250  0.88840  0.31280  Biso   1.000  H
  C59      1.0000 0.70730  0.88168  0.28563  Biso   1.000  C
  H38      1.0000 0.70600  0.92140  0.26100  Biso   1.000  H
  C60      1.0000 0.79440  0.84314  0.29095  Biso   1.000  C
  H39      1.0000 0.85260  0.85650  0.26990  Biso   1.000  H
  C61      1.0000 0.06020  0.67959  0.05360  Biso   1.000  C
  C62      1.0000 0.13550  0.69102  0.01240  Biso   1.000  C
  H40      1.0000 0.20310  0.68230  0.02270  Biso   1.000  H
  C63      1.0000 0.11190  0.71518  0.95617  Biso   1.000  C
  H41      1.0000 0.16330  0.72300  0.92800  Biso   1.000  H
  C64      1.0000 0.01290  0.72790  0.94114  Biso   1.000  C
  H42      1.0000 0.99680  0.74440  0.90270  Biso   1.000  H
  C65      1.0000 0.93770  0.71648  0.98232  Biso   1.000  C
  H43      1.0000 0.87000  0.72520  0.97200  Biso   1.000  H
  C66      1.0000 0.96130  0.69231  0.03856  Biso   1.000  C
  H44      1.0000 0.90980  0.68450  0.06670  Biso   1.000  H
  C67      1.0000 0.11710  0.58370  0.20930  Biso   1.000  C
  C68      1.0000 0.05890  0.68880  0.34610  Biso   1.000  C
  Au5      1.0000 0.48894  0.24215  0.70754  Biso   1.000  Au
  Au6      1.0000 0.66126  0.41807  0.85282  Biso   1.000  Au
  N5       1.0000 0.67730  0.44800  0.71810  Biso   1.000  N
  N6       1.0000 0.70380  0.29550  0.68170  Biso   1.000  N
  C69      1.0000 0.83170  0.38011  0.65220  Biso   1.000  C
  C70      1.0000 0.80368  0.31864  0.67928  Biso   1.000  C
  C71      1.0000 0.87497  0.27788  0.70716  Biso   1.000  C
  H45      1.0000 0.85580  0.23590  0.72570  Biso   1.000  H
  C72      1.0000 0.97430  0.29860  0.70797  Biso   1.000  C
  H46      1.0000 0.02300  0.27070  0.72700  Biso   1.000  H
  C73      1.0000 0.00234  0.36006  0.68090  Biso   1.000  C
  C74      1.0000 0.93105  0.40083  0.65300  Biso   1.000  C
  C75      1.0000 0.95908  0.46229  0.62592  Biso   1.000  C
  H47      1.0000 0.91040  0.49010  0.60690  Biso   1.000  H
  C76      1.0000 0.05840  0.48301  0.62672  Biso   1.000  C
  H48      1.0000 0.07760  0.52500  0.60820  Biso   1.000  H
  C77      1.0000 0.12972  0.44220  0.65461  Biso   1.000  C
  H49      1.0000 0.19760  0.45640  0.65520  Biso   1.000  H
  C78      1.0000 0.10169  0.38078  0.68170  Biso   1.000  C
  H50      1.0000 0.15040  0.35290  0.70080  Biso   1.000  H
  C79      1.0000 0.59490  0.49660  0.56951  Biso   1.000  C
  H51      1.0000 0.54230  0.52260  0.55220  Biso   1.000  H
  C80      1.0000 0.60430  0.49348  0.63073  Biso   1.000  C
  H52      1.0000 0.55820  0.51730  0.65530  Biso   1.000  H
  C81      1.0000 0.68123  0.45544  0.65608  Biso   1.000  C
  C82      1.0000 0.74876  0.42054  0.62021  Biso   1.000  C
  C83      1.0000 0.73940  0.42367  0.55897  Biso   1.000  C
  C84      1.0000 0.66240  0.46169  0.53363  Biso   1.000  C
  C85      1.0000 0.65310  0.46482  0.47239  Biso   1.000  C
  H53      1.0000 0.60050  0.49080  0.45510  Biso   1.000  H
  C86      1.0000 0.72060  0.42991  0.43651  Biso   1.000  C
  H54      1.0000 0.71420  0.43200  0.39470  Biso   1.000  H
  C87      1.0000 0.79750  0.39189  0.46186  Biso   1.000  C
  H55      1.0000 0.84370  0.36800  0.43730  Biso   1.000  H
  C88      1.0000 0.80690  0.38876  0.52310  Biso   1.000  C
  H56      1.0000 0.85950  0.36280  0.54040  Biso   1.000  H
  C89      1.0000 0.64420  0.39808  0.94164  Biso   1.000  C
  C90      1.0000 0.54870  0.39893  0.96562  Biso   1.000  C
  H57      1.0000 0.49310  0.41060  0.94140  Biso   1.000  H
  C91      1.0000 0.53440  0.38269  0.02496  Biso   1.000  C
  H58      1.0000 0.46910  0.38330  0.04140  Biso   1.000  H
  C92      1.0000 0.61560  0.36560  0.06032  Biso   1.000  C
  H59      1.0000 0.60590  0.35450  0.10090  Biso   1.000  H
  C93      1.0000 0.71120  0.36480  0.03634  Biso   1.000  C
  H60      1.0000 0.76670  0.35310  0.06050  Biso   1.000  H
  C94      1.0000 0.72550  0.38099  0.97700  Biso   1.000  C
  H61      1.0000 0.79080  0.38040  0.96060  Biso   1.000  H
  C95      1.0000 0.35180  0.19712  0.72981  Biso   1.000  C
  C96      1.0000 0.27100  0.20404  0.69168  Biso   1.000  C
  H62      1.0000 0.27700  0.23130  0.65690  Biso   1.000  H
  C97      1.0000 0.18140  0.17104  0.70442  Biso   1.000  C
  H63      1.0000 0.12620  0.17580  0.67840  Biso   1.000  H
  C98      1.0000 0.17270  0.13107  0.75527  Biso   1.000  C
  H64      1.0000 0.11140  0.10850  0.76400  Biso   1.000  H
  C99      1.0000 0.25350  0.12414  0.79340  Biso   1.000  C
  H65      1.0000 0.24750  0.09680  0.82820  Biso   1.000  H
  C100     1.0000 0.34310  0.15715  0.78067  Biso   1.000  C
  H66      1.0000 0.39830  0.15240  0.80670  Biso   1.000  H
  C101     1.0000 0.62420  0.27550  0.68790  Biso   1.000  C
  C102     1.0000 0.67340  0.43650  0.76820  Biso   1.000  C
  Au7      1.0000 0.57280  0.26845  0.83532  Biso   1.000  Au
  Au8      1.0000 0.40844  0.36460  0.63578  Biso   1.000  Au
  N7       1.0000 0.36090  0.33440  0.84640  Biso   1.000  N
  N8       1.0000 0.38190  0.44810  0.75140  Biso   1.000  N
  C103     1.0000 0.24040  0.42660  0.84550  Biso   1.000  C
  C104     1.0000 0.32470  0.48020  0.85020  Biso   1.000  C
  C105     1.0000 0.96418  0.41700  0.83221  Biso   1.000  C
  H67      1.0000 0.91310  0.38310  0.82940  Biso   1.000  H
  C106     1.0000 0.93968  0.48670  0.83209  Biso   1.000  C
  H68      1.0000 0.87180  0.50050  0.82920  Biso   1.000  H
  C107     1.0000 0.01449  0.53624  0.83617  Biso   1.000  C
  H69      1.0000 0.99770  0.58390  0.83610  Biso   1.000  H
  C108     1.0000 0.11379  0.51600  0.84036  Biso   1.000  C
  H70      1.0000 0.16490  0.54980  0.84320  Biso   1.000  H
  C109     1.0000 0.13827  0.44625  0.84047  Biso   1.000  C
  C110     1.0000 0.06348  0.39672  0.83639  Biso   1.000  C
  C111     1.0000 0.08796  0.32697  0.83651  Biso   1.000  C
  H71      1.0000 0.03680  0.29310  0.83370  Biso   1.000  H
  C112     1.0000 0.18725  0.30673  0.84070  Biso   1.000  C
  H72      1.0000 0.20400  0.25910  0.84080  Biso   1.000  H
  C113     1.0000 0.26206  0.35625  0.84477  Biso   1.000  C
  C114     1.0000 0.42780  0.60964  0.95537  Biso   1.000  C
  H73      1.0000 0.47980  0.64290  0.95710  Biso   1.000  H
  C115     1.0000 0.36430  0.60091  0.00346  Biso   1.000  C
  H74      1.0000 0.37290  0.62830  0.03800  Biso   1.000  H
  C116     1.0000 0.28820  0.55217  0.00101  Biso   1.000  C
  H75      1.0000 0.24480  0.54620  0.03390  Biso   1.000  H
  C117     1.0000 0.27560  0.51218  0.95044  Biso   1.000  C
  H76      1.0000 0.22360  0.47890  0.94880  Biso   1.000  H
  C118     1.0000 0.33910  0.52091  0.90235  Biso   1.000  C
  C119     1.0000 0.41520  0.56965  0.90482  Biso   1.000  C
  C120     1.0000 0.47870  0.57839  0.85673  Biso   1.000  C
  H77      1.0000 0.53070  0.61170  0.85840  Biso   1.000  H
  C121     1.0000 0.46613  0.53839  0.80617  Biso   1.000  C
  H78      1.0000 0.50950  0.54440  0.77330  Biso   1.000  H
  C122     1.0000 0.39006  0.48965  0.80371  Biso   1.000  C
  C123     1.0000 0.70380  0.21500  0.82704  Biso   1.000  C
  C124     1.0000 0.78910  0.23459  0.85781  Biso   1.000  C
  H79      1.0000 0.78790  0.27430  0.88250  Biso   1.000  H
  C125     1.0000 0.87620  0.19605  0.85248  Biso   1.000  C
  H80      1.0000 0.93450  0.20940  0.87350  Biso   1.000  H
  C126     1.0000 0.87800  0.13792  0.81641  Biso   1.000  C
  H81      1.0000 0.93750  0.11160  0.81280  Biso   1.000  H
  C127     1.0000 0.79270  0.11832  0.78563  Biso   1.000  C
  H82      1.0000 0.79400  0.07860  0.76100  Biso   1.000  H
  C128     1.0000 0.70560  0.15686  0.79095  Biso   1.000  C
  H83      1.0000 0.64740  0.14350  0.76990  Biso   1.000  H
  C129     1.0000 0.43980  0.32041  0.55360  Biso   1.000  C
  C130     1.0000 0.36450  0.30898  0.51240  Biso   1.000  C
  H84      1.0000 0.29690  0.31770  0.52270  Biso   1.000  H
  C131     1.0000 0.38810  0.28482  0.45617  Biso   1.000  C
  H85      1.0000 0.33670  0.27700  0.42800  Biso   1.000  H
  C132     1.0000 0.48710  0.27210  0.44114  Biso   1.000  C
  H86      1.0000 0.50320  0.25560  0.40270  Biso   1.000  H
  C133     1.0000 0.56230  0.28352  0.48232  Biso   1.000  C
  H87      1.0000 0.63000  0.27480  0.47200  Biso   1.000  H
  C134     1.0000 0.53870  0.30769  0.53856  Biso   1.000  C
  H88      1.0000 0.59020  0.31550  0.56670  Biso   1.000  H
  C135     1.0000 0.38290  0.41630  0.70930  Biso   1.000  C
  C136     1.0000 0.44110  0.31120  0.84610  Biso   1.000  C
  Au9      1.0000 0.98894  0.25785  0.29246  Biso   1.000  Au
  Au10     1.0000 0.16126  0.08193  0.14718  Biso   1.000  Au
  N9       1.0000 0.17730  0.05200  0.28190  Biso   1.000  N
  N10      1.0000 0.20380  0.20450  0.31830  Biso   1.000  N
  C137     1.0000 0.33170  0.11989  0.34780  Biso   1.000  C
  C138     1.0000 0.30368  0.18136  0.32072  Biso   1.000  C
  C139     1.0000 0.37497  0.22212  0.29284  Biso   1.000  C
  H89      1.0000 0.35580  0.26410  0.27430  Biso   1.000  H
  C140     1.0000 0.47430  0.20140  0.29203  Biso   1.000  C
  H90      1.0000 0.52300  0.22930  0.27300  Biso   1.000  H
  C141     1.0000 0.50234  0.13994  0.31910  Biso   1.000  C
  C142     1.0000 0.43105  0.09917  0.34700  Biso   1.000  C
  C143     1.0000 0.45908  0.03771  0.37408  Biso   1.000  C
  H91      1.0000 0.41040  0.00990  0.39310  Biso   1.000  H
  C144     1.0000 0.55840  0.01699  0.37328  Biso   1.000  C
  H92      1.0000 0.57760  0.97500  0.39180  Biso   1.000  H
  C145     1.0000 0.62972  0.05780  0.34539  Biso   1.000  C
  H93      1.0000 0.69760  0.04360  0.34480  Biso   1.000  H
  C146     1.0000 0.60169  0.11922  0.31830  Biso   1.000  C
  H94      1.0000 0.65040  0.14710  0.29920  Biso   1.000  H
  C147     1.0000 0.09490  0.00340  0.43049  Biso   1.000  C
  H95      1.0000 0.04230  0.97740  0.44780  Biso   1.000  H
  C148     1.0000 0.10430  0.00652  0.36927  Biso   1.000  C
  H96      1.0000 0.05820  0.98270  0.34470  Biso   1.000  H
  C149     1.0000 0.18123  0.04456  0.34392  Biso   1.000  C
  C150     1.0000 0.24876  0.07946  0.37979  Biso   1.000  C
  C151     1.0000 0.23940  0.07633  0.44103  Biso   1.000  C
  C152     1.0000 0.16240  0.03831  0.46637  Biso   1.000  C
  C153     1.0000 0.15310  0.03518  0.52761  Biso   1.000  C
  H97      1.0000 0.10050  0.00920  0.54490  Biso   1.000  H
  C154     1.0000 0.22060  0.07009  0.56349  Biso   1.000  C
  H98      1.0000 0.21420  0.06800  0.60530  Biso   1.000  H
  C155     1.0000 0.29750  0.10811  0.53814  Biso   1.000  C
  H99      1.0000 0.34370  0.13200  0.56270  Biso   1.000  H
  C156     1.0000 0.30690  0.11124  0.47690  Biso   1.000  C
  H100     1.0000 0.35950  0.13720  0.45960  Biso   1.000  H
  C157     1.0000 0.14420  0.10192  0.05836  Biso   1.000  C
  C158     1.0000 0.04870  0.10107  0.03438  Biso   1.000  C
  H101     1.0000 0.99310  0.08940  0.05860  Biso   1.000  H
  C159     1.0000 0.03440  0.11731  0.97504  Biso   1.000  C
  H102     1.0000 0.96910  0.11670  0.95860  Biso   1.000  H
  C160     1.0000 0.11560  0.13440  0.93968  Biso   1.000  C
  H103     1.0000 0.10590  0.14550  0.89910  Biso   1.000  H
  C161     1.0000 0.21120  0.13520  0.96366  Biso   1.000  C
  H104     1.0000 0.26670  0.14690  0.93950  Biso   1.000  H
  C162     1.0000 0.22550  0.11901  0.02300  Biso   1.000  C
  H105     1.0000 0.29080  0.11960  0.03940  Biso   1.000  H
  C163     1.0000 0.85180  0.30288  0.27019  Biso   1.000  C
  C164     1.0000 0.77100  0.29596  0.30832  Biso   1.000  C
  H106     1.0000 0.77700  0.26870  0.34310  Biso   1.000  H
  C165     1.0000 0.68140  0.32896  0.29558  Biso   1.000  C
  H107     1.0000 0.62620  0.32420  0.32160  Biso   1.000  H
  C166     1.0000 0.67270  0.36893  0.24473  Biso   1.000  C
  H108     1.0000 0.61140  0.39150  0.23600  Biso   1.000  H
  C167     1.0000 0.75350  0.37586  0.20660  Biso   1.000  C
  H109     1.0000 0.74750  0.40320  0.17180  Biso   1.000  H
  C168     1.0000 0.84310  0.34285  0.21933  Biso   1.000  C
  H110     1.0000 0.89830  0.34760  0.19330  Biso   1.000  H
  C169     1.0000 0.12420  0.22450  0.31210  Biso   1.000  C
  C170     1.0000 0.17340  0.06350  0.23180  Biso   1.000  C
  Au11     1.0000 0.07280  0.23155  0.16468  Biso   1.000  Au
  Au12     1.0000 0.90844  0.13540  0.36422  Biso   1.000  Au
  N11      1.0000 0.86090  0.16560  0.15360  Biso   1.000  N
  N12      1.0000 0.88190  0.05190  0.24860  Biso   1.000  N
  C171     1.0000 0.74040  0.07340  0.15450  Biso   1.000  C
  C172     1.0000 0.82470  0.01980  0.14980  Biso   1.000  C
  C173     1.0000 0.46418  0.08300  0.16779  Biso   1.000  C
  H111     1.0000 0.41310  0.11690  0.17060  Biso   1.000  H
  C174     1.0000 0.43968  0.01330  0.16791  Biso   1.000  C
  H112     1.0000 0.37180  0.99950  0.17080  Biso   1.000  H
  C175     1.0000 0.51449  0.96376  0.16383  Biso   1.000  C
  H113     1.0000 0.49770  0.91610  0.16390  Biso   1.000  H
  C176     1.0000 0.61379  0.98400  0.15964  Biso   1.000  C
  H114     1.0000 0.66490  0.95020  0.15680  Biso   1.000  H
  C177     1.0000 0.63827  0.05375  0.15953  Biso   1.000  C
  C178     1.0000 0.56348  0.10328  0.16361  Biso   1.000  C
  C179     1.0000 0.58796  0.17303  0.16349  Biso   1.000  C
  H115     1.0000 0.53680  0.20690  0.16630  Biso   1.000  H
  C180     1.0000 0.68725  0.19327  0.15930  Biso   1.000  C
  H116     1.0000 0.70400  0.24090  0.15920  Biso   1.000  H
  C181     1.0000 0.76206  0.14375  0.15523  Biso   1.000  C
  C182     1.0000 0.92780  0.89036  0.04463  Biso   1.000  C
  H117     1.0000 0.97980  0.85710  0.04290  Biso   1.000  H
  C183     1.0000 0.86430  0.89909  0.99654  Biso   1.000  C
  H118     1.0000 0.87290  0.87170  0.96200  Biso   1.000  H
  C184     1.0000 0.78820  0.94783  0.99899  Biso   1.000  C
  H119     1.0000 0.74480  0.95380  0.96610  Biso   1.000  H
  C185     1.0000 0.77560  0.98782  0.04956  Biso   1.000  C
  H120     1.0000 0.72360  0.02110  0.05120  Biso   1.000  H
  C186     1.0000 0.83910  0.97909  0.09765  Biso   1.000  C
  C187     1.0000 0.91520  0.93035  0.09518  Biso   1.000  C
  C188     1.0000 0.97870  0.92161  0.14327  Biso   1.000  C
  H121     1.0000 0.03070  0.88830  0.14160  Biso   1.000  H
  C189     1.0000 0.96613  0.96161  0.19383  Biso   1.000  C
  H122     1.0000 0.00950  0.95560  0.22670  Biso   1.000  H
  C190     1.0000 0.89006  0.01035  0.19629  Biso   1.000  C
  C191     1.0000 0.20380  0.28500  0.17296  Biso   1.000  C
  C192     1.0000 0.28910  0.26541  0.14219  Biso   1.000  C
  H123     1.0000 0.28790  0.22570  0.11750  Biso   1.000  H
  C193     1.0000 0.37620  0.30395  0.14752  Biso   1.000  C
  H124     1.0000 0.43450  0.29060  0.12650  Biso   1.000  H
  C194     1.0000 0.37800  0.36208  0.18359  Biso   1.000  C
  H125     1.0000 0.43750  0.38840  0.18720  Biso   1.000  H
  C195     1.0000 0.29270  0.38168  0.21437  Biso   1.000  C
  H126     1.0000 0.29400  0.42140  0.23900  Biso   1.000  H
  C196     1.0000 0.20560  0.34314  0.20905  Biso   1.000  C
  H127     1.0000 0.14740  0.35650  0.23010  Biso   1.000  H
  C197     1.0000 0.93980  0.17959  0.44640  Biso   1.000  C
  C198     1.0000 0.86450  0.19102  0.48760  Biso   1.000  C
  H128     1.0000 0.79690  0.18230  0.47730  Biso   1.000  H
  C199     1.0000 0.88810  0.21518  0.54383  Biso   1.000  C
  H129     1.0000 0.83670  0.22300  0.57200  Biso   1.000  H
  C200     1.0000 0.98710  0.22790  0.55886  Biso   1.000  C
  H130     1.0000 0.00320  0.24440  0.59730  Biso   1.000  H
  C201     1.0000 0.06230  0.21648  0.51768  Biso   1.000  C
  H131     1.0000 0.13000  0.22520  0.52800  Biso   1.000  H
  C202     1.0000 0.03870  0.19231  0.46144  Biso   1.000  C
  H132     1.0000 0.09020  0.18450  0.43330  Biso   1.000  H
  C203     1.0000 0.88290  0.08370  0.29070  Biso   1.000  C
  C204     1.0000 0.94110  0.18880  0.15390  Biso   1.000  C
  Au13     1.0000 0.51106  0.74215  0.79246  Biso   1.000  Au
  Au14     1.0000 0.33874  0.91807  0.64718  Biso   1.000  Au
  N13      1.0000 0.32270  0.94800  0.78190  Biso   1.000  N
  N14      1.0000 0.29620  0.79550  0.81830  Biso   1.000  N
  C205     1.0000 0.16830  0.88011  0.84780  Biso   1.000  C
  C206     1.0000 0.19632  0.81864  0.82072  Biso   1.000  C
  C207     1.0000 0.12503  0.77788  0.79284  Biso   1.000  C
  H133     1.0000 0.14420  0.73590  0.77430  Biso   1.000  H
  C208     1.0000 0.02570  0.79860  0.79203  Biso   1.000  C
  H134     1.0000 0.97700  0.77070  0.77300  Biso   1.000  H
  C209     1.0000 0.99766  0.86006  0.81910  Biso   1.000  C
  C210     1.0000 0.06895  0.90083  0.84700  Biso   1.000  C
  C211     1.0000 0.04092  0.96229  0.87408  Biso   1.000  C
  H135     1.0000 0.08960  0.99010  0.89310  Biso   1.000  H
  C212     1.0000 0.94160  0.98301  0.87328  Biso   1.000  C
  H136     1.0000 0.92240  0.02500  0.89180  Biso   1.000  H
  C213     1.0000 0.87028  0.94220  0.84539  Biso   1.000  C
  H137     1.0000 0.80240  0.95640  0.84480  Biso   1.000  H
  C214     1.0000 0.89831  0.88078  0.81830  Biso   1.000  C
  H138     1.0000 0.84960  0.85290  0.79920  Biso   1.000  H
  C215     1.0000 0.40510  0.99660  0.93049  Biso   1.000  C
  H139     1.0000 0.45770  0.02260  0.94780  Biso   1.000  H
  C216     1.0000 0.39570  0.99348  0.86927  Biso   1.000  C
  H140     1.0000 0.44180  0.01730  0.84470  Biso   1.000  H
  C217     1.0000 0.31877  0.95544  0.84392  Biso   1.000  C
  C218     1.0000 0.25124  0.92054  0.87979  Biso   1.000  C
  C219     1.0000 0.26060  0.92367  0.94103  Biso   1.000  C
  C220     1.0000 0.33760  0.96169  0.96637  Biso   1.000  C
  C221     1.0000 0.34690  0.96482  0.02761  Biso   1.000  C
  H141     1.0000 0.39950  0.99080  0.04490  Biso   1.000  H
  C222     1.0000 0.27940  0.92991  0.06349  Biso   1.000  C
  H142     1.0000 0.28580  0.93200  0.10530  Biso   1.000  H
  C223     1.0000 0.20250  0.89189  0.03814  Biso   1.000  C
  H143     1.0000 0.15630  0.86800  0.06270  Biso   1.000  H
  C224     1.0000 0.19310  0.88876  0.97690  Biso   1.000  C
  H144     1.0000 0.14050  0.86280  0.95960  Biso   1.000  H
  C225     1.0000 0.35580  0.89808  0.55836  Biso   1.000  C
  C226     1.0000 0.45130  0.89893  0.53438  Biso   1.000  C
  H145     1.0000 0.50690  0.91060  0.55860  Biso   1.000  H
  C227     1.0000 0.46560  0.88269  0.47504  Biso   1.000  C
  H146     1.0000 0.53090  0.88330  0.45860  Biso   1.000  H
  C228     1.0000 0.38440  0.86560  0.43968  Biso   1.000  C
  H147     1.0000 0.39410  0.85450  0.39910  Biso   1.000  H
  C229     1.0000 0.28880  0.86480  0.46366  Biso   1.000  C
  H148     1.0000 0.23330  0.85310  0.43950  Biso   1.000  H
  C230     1.0000 0.27450  0.88099  0.52300  Biso   1.000  C
  H149     1.0000 0.20920  0.88040  0.53940  Biso   1.000  H
  C231     1.0000 0.64820  0.69712  0.77019  Biso   1.000  C
  C232     1.0000 0.72900  0.70404  0.80832  Biso   1.000  C
  H150     1.0000 0.72300  0.73130  0.84310  Biso   1.000  H
  C233     1.0000 0.81860  0.67104  0.79558  Biso   1.000  C
  H151     1.0000 0.87380  0.67580  0.82160  Biso   1.000  H
  C234     1.0000 0.82730  0.63107  0.74473  Biso   1.000  C
  H152     1.0000 0.88860  0.60850  0.73600  Biso   1.000  H
  C235     1.0000 0.74650  0.62414  0.70660  Biso   1.000  C
  H153     1.0000 0.75250  0.59680  0.67180  Biso   1.000  H
  C236     1.0000 0.65690  0.65715  0.71933  Biso   1.000  C
  H154     1.0000 0.60170  0.65240  0.69330  Biso   1.000  H
  C237     1.0000 0.37580  0.77550  0.81210  Biso   1.000  C
  C238     1.0000 0.32660  0.93650  0.73180  Biso   1.000  C
  Au15     1.0000 0.42720  0.76845  0.66468  Biso   1.000  Au
  Au16     1.0000 0.59156  0.86460  0.86422  Biso   1.000  Au
  N15      1.0000 0.63910  0.83440  0.65360  Biso   1.000  N
  N16      1.0000 0.61810  0.94810  0.74860  Biso   1.000  N
  C239     1.0000 0.75960  0.92660  0.65450  Biso   1.000  C
  C240     1.0000 0.67530  0.98020  0.64980  Biso   1.000  C
  C241     1.0000 0.03582  0.91700  0.66779  Biso   1.000  C
  H155     1.0000 0.08690  0.88310  0.67060  Biso   1.000  H
  C242     1.0000 0.06032  0.98670  0.66791  Biso   1.000  C
  H156     1.0000 0.12820  0.00050  0.67080  Biso   1.000  H
  C243     1.0000 0.98551  0.03624  0.66383  Biso   1.000  C
  H157     1.0000 0.00230  0.08390  0.66390  Biso   1.000  H
  C244     1.0000 0.88621  0.01600  0.65964  Biso   1.000  C
  H158     1.0000 0.83510  0.04980  0.65680  Biso   1.000  H
  C245     1.0000 0.86173  0.94625  0.65953  Biso   1.000  C
  C246     1.0000 0.93652  0.89672  0.66361  Biso   1.000  C
  C247     1.0000 0.91204  0.82697  0.66349  Biso   1.000  C
  H159     1.0000 0.96320  0.79310  0.66630  Biso   1.000  H
  C248     1.0000 0.81275  0.80673  0.65930  Biso   1.000  C
  H160     1.0000 0.79600  0.75910  0.65920  Biso   1.000  H
  C249     1.0000 0.73794  0.85625  0.65523  Biso   1.000  C
  C250     1.0000 0.57220  0.10964  0.54463  Biso   1.000  C
  H161     1.0000 0.52020  0.14290  0.54290  Biso   1.000  H
  C251     1.0000 0.63570  0.10091  0.49654  Biso   1.000  C
  H162     1.0000 0.62710  0.12830  0.46200  Biso   1.000  H
  C252     1.0000 0.71180  0.05217  0.49899  Biso   1.000  C
  H163     1.0000 0.75520  0.04620  0.46610  Biso   1.000  H
  C253     1.0000 0.72440  0.01218  0.54956  Biso   1.000  C
  H164     1.0000 0.77640  0.97890  0.55120  Biso   1.000  H
  C254     1.0000 0.66090  0.02091  0.59765  Biso   1.000  C
  C255     1.0000 0.58480  0.06965  0.59518  Biso   1.000  C
  C256     1.0000 0.52130  0.07839  0.64327  Biso   1.000  C
  H165     1.0000 0.46930  0.11170  0.64160  Biso   1.000  H
  C257     1.0000 0.53387  0.03839  0.69383  Biso   1.000  C
  H166     1.0000 0.49050  0.04440  0.72670  Biso   1.000  H
  C258     1.0000 0.60994  0.98965  0.69629  Biso   1.000  C
  C259     1.0000 0.29620  0.71500  0.67296  Biso   1.000  C
  C260     1.0000 0.21090  0.73459  0.64219  Biso   1.000  C
  H167     1.0000 0.21210  0.77430  0.61750  Biso   1.000  H
  C261     1.0000 0.12380  0.69605  0.64752  Biso   1.000  C
  H168     1.0000 0.06550  0.70940  0.62650  Biso   1.000  H
  C262     1.0000 0.12200  0.63792  0.68359  Biso   1.000  C
  H169     1.0000 0.06250  0.61160  0.68720  Biso   1.000  H
  C263     1.0000 0.20730  0.61832  0.71437  Biso   1.000  C
  H170     1.0000 0.20600  0.57860  0.73900  Biso   1.000  H
  C264     1.0000 0.29440  0.65686  0.70905  Biso   1.000  C
  H171     1.0000 0.35260  0.64350  0.73010  Biso   1.000  H
  C265     1.0000 0.56020  0.82041  0.94640  Biso   1.000  C
  C266     1.0000 0.63550  0.80898  0.98760  Biso   1.000  C
  H172     1.0000 0.70310  0.81770  0.97730  Biso   1.000  H
  C267     1.0000 0.61190  0.78482  0.04383  Biso   1.000  C
  H173     1.0000 0.66330  0.77700  0.07200  Biso   1.000  H
  C268     1.0000 0.51290  0.77210  0.05886  Biso   1.000  C
  H174     1.0000 0.49680  0.75560  0.09730  Biso   1.000  H
  C269     1.0000 0.43770  0.78352  0.01768  Biso   1.000  C
  H175     1.0000 0.37000  0.77480  0.02800  Biso   1.000  H
  C270     1.0000 0.46130  0.80769  0.96144  Biso   1.000  C
  H176     1.0000 0.40980  0.81550  0.93330  Biso   1.000  H
  C271     1.0000 0.61710  0.91630  0.79070  Biso   1.000  C
  C272     1.0000 0.55890  0.81120  0.65390  Biso   1.000  C
