data_image0
_cell_length_a       16.136
_cell_length_b       13.126
_cell_length_c       34.238
_cell_angle_alpha    90
_cell_angle_beta     90.19
_cell_angle_gamma    90

_symmetry_space_group_name_H-M    "P 1"
_symmetry_int_tables_number       1

loop_
  _symmetry_equiv_pos_as_xyz
  'x, y, z'

loop_
  _atom_site_label
  _atom_site_occupancy
  _atom_site_fract_x
  _atom_site_fract_y
  _atom_site_fract_z
  _atom_site_thermal_displace_type
  _atom_site_B_iso_or_equiv
  _atom_site_type_symbol
  Cl1      1.0000 0.56601  0.70631  0.31944  Biso   1.000  Cl
  N1       1.0000 0.40889  0.83880  0.26718  Biso   1.000  N
  N2       1.0000 0.36330  0.98280  0.29551  Biso   1.000  N
  H1       1.0000 0.36150  0.03700  0.30960  Biso   1.000  H
  N3       1.0000 0.30410  0.94510  0.27090  Biso   1.000  N
  N4       1.0000 0.70880  0.49510  0.22232  Biso   1.000  N
  C1       1.0000 0.65730  0.54160  0.24817  Biso   1.000  C
  H2       1.0000 0.66290  0.54000  0.27520  Biso   1.000  H
  N5       1.0000 0.61650  0.57060  0.19111  Biso   1.000  N
  H3       1.0000 0.58710  0.59290  0.17190  Biso   1.000  H
  C2       1.0000 0.42450  0.91540  0.29242  Biso   1.000  C
  H4       1.0000 0.47370  0.92060  0.30640  Biso   1.000  H
  C3       1.0000 0.33290  0.86030  0.25383  Biso   1.000  C
  H5       1.0000 0.30410  0.82200  0.23540  Biso   1.000  H
  C4       1.0000 0.22570  0.99430  0.26714  Biso   1.000  C
  C5       1.0000 0.20050  0.06570  0.29450  Biso   1.000  C
  H6       1.0000 0.23380  0.08020  0.31600  Biso   1.000  H
  C6       1.0000 0.12630  0.11470  0.28960  Biso   1.000  C
  H7       1.0000 0.10870  0.16030  0.30860  Biso   1.000  H
  C7       1.0000 0.07730  0.09830  0.25747  Biso   1.000  C
  C8       1.0000 0.10220  0.02490  0.23015  Biso   1.000  C
  H8       1.0000 0.06840  0.01060  0.20880  Biso   1.000  H
  C9       1.0000 0.17610  0.97360  0.23461  Biso   1.000  C
  H9       1.0000 0.19280  0.92570  0.21620  Biso   1.000  H
  C10      1.0000 0.92290  0.32260  0.24454  Biso   1.000  C
  C11      1.0000 0.85360  0.31210  0.26883  Biso   1.000  C
  H10      1.0000 0.85560  0.26740  0.28990  Biso   1.000  H
  C12      1.0000 0.78250  0.36770  0.26169  Biso   1.000  C
  H11      1.0000 0.73640  0.35950  0.27760  Biso   1.000  H
  C13      1.0000 0.77990  0.43650  0.23049  Biso   1.000  C
  C14      1.0000 0.85030  0.45300  0.20767  Biso   1.000  C
  H12      1.0000 0.84970  0.50090  0.18770  Biso   1.000  H
  C15      1.0000 0.92130  0.39640  0.21549  Biso   1.000  C
  H13      1.0000 0.96890  0.40830  0.20090  Biso   1.000  H
  C16      1.0000 0.68460  0.51440  0.18599  Biso   1.000  C
  H14      1.0000 0.70890  0.49390  0.16270  Biso   1.000  H
  N6       1.0000 0.59760  0.58950  0.22870  Biso   1.000  N
  Cl2      1.0000 0.43399  0.70631  0.18056  Biso   1.000  Cl
  N7       1.0000 0.59111  0.83880  0.23282  Biso   1.000  N
  N8       1.0000 0.63670  0.98280  0.20449  Biso   1.000  N
  H15      1.0000 0.63850  0.03700  0.19040  Biso   1.000  H
  N9       1.0000 0.69590  0.94510  0.22910  Biso   1.000  N
  N10      1.0000 0.29120  0.49510  0.27768  Biso   1.000  N
  C17      1.0000 0.34270  0.54160  0.25183  Biso   1.000  C
  H16      1.0000 0.33710  0.54000  0.22480  Biso   1.000  H
  N11      1.0000 0.38350  0.57060  0.30889  Biso   1.000  N
  H17      1.0000 0.41290  0.59290  0.32810  Biso   1.000  H
  C18      1.0000 0.57550  0.91540  0.20758  Biso   1.000  C
  H18      1.0000 0.52630  0.92060  0.19360  Biso   1.000  H
  C19      1.0000 0.66710  0.86030  0.24617  Biso   1.000  C
  H19      1.0000 0.69590  0.82200  0.26460  Biso   1.000  H
  C20      1.0000 0.77430  0.99430  0.23286  Biso   1.000  C
  C21      1.0000 0.79950  0.06570  0.20550  Biso   1.000  C
  H20      1.0000 0.76620  0.08020  0.18400  Biso   1.000  H
  C22      1.0000 0.87370  0.11470  0.21040  Biso   1.000  C
  H21      1.0000 0.89130  0.16030  0.19140  Biso   1.000  H
  C23      1.0000 0.92270  0.09830  0.24253  Biso   1.000  C
  C24      1.0000 0.89780  0.02490  0.26985  Biso   1.000  C
  H22      1.0000 0.93160  0.01060  0.29120  Biso   1.000  H
  C25      1.0000 0.82390  0.97360  0.26539  Biso   1.000  C
  H23      1.0000 0.80720  0.92570  0.28380  Biso   1.000  H
  C26      1.0000 0.07710  0.32260  0.25546  Biso   1.000  C
  C27      1.0000 0.14640  0.31210  0.23117  Biso   1.000  C
  H24      1.0000 0.14440  0.26740  0.21010  Biso   1.000  H
  C28      1.0000 0.21750  0.36770  0.23831  Biso   1.000  C
  H25      1.0000 0.26360  0.35950  0.22240  Biso   1.000  H
  C29      1.0000 0.22010  0.43650  0.26951  Biso   1.000  C
  C30      1.0000 0.14970  0.45300  0.29233  Biso   1.000  C
  H26      1.0000 0.15030  0.50090  0.31230  Biso   1.000  H
  C31      1.0000 0.07870  0.39640  0.28451  Biso   1.000  C
  H27      1.0000 0.03110  0.40830  0.29910  Biso   1.000  H
  C32      1.0000 0.31540  0.51440  0.31401  Biso   1.000  C
  H28      1.0000 0.29110  0.49390  0.33730  Biso   1.000  H
  N12      1.0000 0.40240  0.58950  0.27130  Biso   1.000  N
  Cd1      1.0000 0.50000  0.70675  0.25000  Biso   1.000  Cd
  C33      1.0000 0.00000  0.15760  0.25000  Biso   1.000  C
  C34      1.0000 0.00000  0.26210  0.25000  Biso   1.000  C
  Cl3      1.0000 0.43399  0.29369  0.68056  Biso   1.000  Cl
  N13      1.0000 0.59111  0.16120  0.73282  Biso   1.000  N
  N14      1.0000 0.63670  0.01720  0.70449  Biso   1.000  N
  H29      1.0000 0.63850  0.96300  0.69040  Biso   1.000  H
  N15      1.0000 0.69590  0.05490  0.72910  Biso   1.000  N
  N16      1.0000 0.29120  0.50490  0.77768  Biso   1.000  N
  C35      1.0000 0.34270  0.45840  0.75183  Biso   1.000  C
  H30      1.0000 0.33710  0.46000  0.72480  Biso   1.000  H
  N17      1.0000 0.38350  0.42940  0.80889  Biso   1.000  N
  H31      1.0000 0.41290  0.40710  0.82810  Biso   1.000  H
  C36      1.0000 0.57550  0.08460  0.70758  Biso   1.000  C
  H32      1.0000 0.52630  0.07940  0.69360  Biso   1.000  H
  C37      1.0000 0.66710  0.13970  0.74617  Biso   1.000  C
  H33      1.0000 0.69590  0.17800  0.76460  Biso   1.000  H
  C38      1.0000 0.77430  0.00570  0.73286  Biso   1.000  C
  C39      1.0000 0.79950  0.93430  0.70550  Biso   1.000  C
  H34      1.0000 0.76620  0.91980  0.68400  Biso   1.000  H
  C40      1.0000 0.87370  0.88530  0.71040  Biso   1.000  C
  H35      1.0000 0.89130  0.83970  0.69140  Biso   1.000  H
  C41      1.0000 0.92270  0.90170  0.74253  Biso   1.000  C
  C42      1.0000 0.89780  0.97510  0.76985  Biso   1.000  C
  H36      1.0000 0.93160  0.98940  0.79120  Biso   1.000  H
  C43      1.0000 0.82390  0.02640  0.76539  Biso   1.000  C
  H37      1.0000 0.80720  0.07430  0.78380  Biso   1.000  H
  C44      1.0000 0.07710  0.67740  0.75546  Biso   1.000  C
  C45      1.0000 0.14640  0.68790  0.73117  Biso   1.000  C
  H38      1.0000 0.14440  0.73260  0.71010  Biso   1.000  H
  C46      1.0000 0.21750  0.63230  0.73831  Biso   1.000  C
  H39      1.0000 0.26360  0.64050  0.72240  Biso   1.000  H
  C47      1.0000 0.22010  0.56350  0.76951  Biso   1.000  C
  C48      1.0000 0.14970  0.54700  0.79233  Biso   1.000  C
  H40      1.0000 0.15030  0.49910  0.81230  Biso   1.000  H
  C49      1.0000 0.07870  0.60360  0.78451  Biso   1.000  C
  H41      1.0000 0.03110  0.59170  0.79910  Biso   1.000  H
  C50      1.0000 0.31540  0.48560  0.81401  Biso   1.000  C
  H42      1.0000 0.29110  0.50610  0.83730  Biso   1.000  H
  N18      1.0000 0.40240  0.41050  0.77130  Biso   1.000  N
  Cl4      1.0000 0.56601  0.29369  0.81944  Biso   1.000  Cl
  N19      1.0000 0.40889  0.16120  0.76718  Biso   1.000  N
  N20      1.0000 0.36330  0.01720  0.79551  Biso   1.000  N
  H43      1.0000 0.36150  0.96300  0.80960  Biso   1.000  H
  N21      1.0000 0.30410  0.05490  0.77090  Biso   1.000  N
  N22      1.0000 0.70880  0.50490  0.72232  Biso   1.000  N
  C51      1.0000 0.65730  0.45840  0.74817  Biso   1.000  C
  H44      1.0000 0.66290  0.46000  0.77520  Biso   1.000  H
  N23      1.0000 0.61650  0.42940  0.69111  Biso   1.000  N
  H45      1.0000 0.58710  0.40710  0.67190  Biso   1.000  H
  C52      1.0000 0.42450  0.08460  0.79242  Biso   1.000  C
  H46      1.0000 0.47370  0.07940  0.80640  Biso   1.000  H
  C53      1.0000 0.33290  0.13970  0.75383  Biso   1.000  C
  H47      1.0000 0.30410  0.17800  0.73540  Biso   1.000  H
  C54      1.0000 0.22570  0.00570  0.76714  Biso   1.000  C
  C55      1.0000 0.20050  0.93430  0.79450  Biso   1.000  C
  H48      1.0000 0.23380  0.91980  0.81600  Biso   1.000  H
  C56      1.0000 0.12630  0.88530  0.78960  Biso   1.000  C
  H49      1.0000 0.10870  0.83970  0.80860  Biso   1.000  H
  C57      1.0000 0.07730  0.90170  0.75747  Biso   1.000  C
  C58      1.0000 0.10220  0.97510  0.73015  Biso   1.000  C
  H50      1.0000 0.06840  0.98940  0.70880  Biso   1.000  H
  C59      1.0000 0.17610  0.02640  0.73461  Biso   1.000  C
  H51      1.0000 0.19280  0.07430  0.71620  Biso   1.000  H
  C60      1.0000 0.92290  0.67740  0.74454  Biso   1.000  C
  C61      1.0000 0.85360  0.68790  0.76883  Biso   1.000  C
  H52      1.0000 0.85560  0.73260  0.78990  Biso   1.000  H
  C62      1.0000 0.78250  0.63230  0.76169  Biso   1.000  C
  H53      1.0000 0.73640  0.64050  0.77760  Biso   1.000  H
  C63      1.0000 0.77990  0.56350  0.73049  Biso   1.000  C
  C64      1.0000 0.85030  0.54700  0.70767  Biso   1.000  C
  H54      1.0000 0.84970  0.49910  0.68770  Biso   1.000  H
  C65      1.0000 0.92130  0.60360  0.71549  Biso   1.000  C
  H55      1.0000 0.96890  0.59170  0.70090  Biso   1.000  H
  C66      1.0000 0.68460  0.48560  0.68599  Biso   1.000  C
  H56      1.0000 0.70890  0.50610  0.66270  Biso   1.000  H
  N24      1.0000 0.59760  0.41050  0.72870  Biso   1.000  N
  Cd2      1.0000 0.50000  0.29325  0.75000  Biso   1.000  Cd
  C67      1.0000 0.00000  0.84240  0.75000  Biso   1.000  C
  C68      1.0000 0.00000  0.73790  0.75000  Biso   1.000  C
  Cd3      1.0000 0.80364  0.87867  0.41567  Biso   1.000  Cd
  K1       1.0000 0.84368  0.63116  0.32286  Biso   1.000  K
  Cl5      1.0000 0.77878  0.96078  0.48491  Biso   1.000  Cl
  Cl6      1.0000 0.81870  0.79657  0.34713  Biso   1.000  Cl
  N25      1.0000 0.68590  0.96740  0.39242  Biso   1.000  N
  N26      1.0000 0.57180  0.99160  0.35713  Biso   1.000  N
  N27      1.0000 0.57400  0.06020  0.38747  Biso   1.000  N
  N28      1.0000 0.01830  0.67680  0.44862  Biso   1.000  N
  N29      1.0000 0.98600  0.68740  0.48502  Biso   1.000  N
  N30      1.0000 0.91580  0.78360  0.44104  Biso   1.000  N
  N31      1.0000 0.88930  0.01410  0.39658  Biso   1.000  N
  N32      1.0000 0.93030  0.15430  0.36669  Biso   1.000  N
  N33      1.0000 0.99080  0.12120  0.39146  Biso   1.000  N
  N34      1.0000 0.60660  0.64680  0.44283  Biso   1.000  N
  N35      1.0000 0.63680  0.66250  0.47940  Biso   1.000  N
  N36      1.0000 0.71150  0.74910  0.43610  Biso   1.000  N
  C69      1.0000 0.63970  0.94030  0.36126  Biso   1.000  C
  H57      1.0000 0.65540  0.88890  0.34410  Biso   1.000  H
  C70      1.0000 0.64220  0.04470  0.40839  Biso   1.000  C
  H58      1.0000 0.65750  0.08110  0.43060  Biso   1.000  H
  C71      1.0000 0.50710  0.12910  0.39333  Biso   1.000  C
  C72      1.0000 0.44500  0.13840  0.36507  Biso   1.000  C
  H59      1.0000 0.44850  0.10210  0.34180  Biso   1.000  H
  C73      1.0000 0.37840  0.20160  0.37183  Biso   1.000  C
  H60      1.0000 0.33570  0.20430  0.35360  Biso   1.000  H
  C74      1.0000 0.37340  0.26200  0.40554  Biso   1.000  C
  C75      1.0000 0.43640  0.25290  0.43281  Biso   1.000  C
  H61      1.0000 0.43410  0.29150  0.45550  Biso   1.000  H
  C76      1.0000 0.50330  0.18710  0.42715  Biso   1.000  C
  H62      1.0000 0.54500  0.18230  0.44590  Biso   1.000  H
  C77      1.0000 0.29970  0.32900  0.41150  Biso   1.000  C
  C78      1.0000 0.30430  0.42850  0.42166  Biso   1.000  C
  C79      1.0000 0.22910  0.49270  0.42963  Biso   1.000  C
  C80      1.0000 0.21200  0.57830  0.40658  Biso   1.000  C
  H63      1.0000 0.24910  0.59580  0.38690  Biso   1.000  H
  C81      1.0000 0.14300  0.63720  0.41179  Biso   1.000  C
  H64      1.0000 0.13170  0.69180  0.39530  Biso   1.000  H
  C82      1.0000 0.08990  0.61290  0.44263  Biso   1.000  C
  C83      1.0000 0.10400  0.53000  0.46559  Biso   1.000  C
  H65      1.0000 0.06710  0.51350  0.48540  Biso   1.000  H
  C84      1.0000 0.17420  0.46960  0.45939  Biso   1.000  C
  H66      1.0000 0.18410  0.41360  0.47540  Biso   1.000  H
  C85      1.0000 0.97530  0.73300  0.42290  Biso   1.000  C
  H67      1.0000 0.98570  0.73600  0.39620  Biso   1.000  H
  C86      1.0000 0.92550  0.75300  0.47966  Biso   1.000  C
  H68      1.0000 0.89220  0.77670  0.49980  Biso   1.000  H
  C87      1.0000 0.87040  0.08980  0.37222  Biso   1.000  C
  H69      1.0000 0.81890  0.09590  0.36020  Biso   1.000  H
  C88      1.0000 0.96350  0.03640  0.40846  Biso   1.000  C
  H70      1.0000 0.99360  0.99830  0.42650  Biso   1.000  H
  C89      1.0000 0.06770  0.17360  0.39614  Biso   1.000  C
  C90      1.0000 0.07920  0.26610  0.37860  Biso   1.000  C
  H71      1.0000 0.03700  0.29470  0.36360  Biso   1.000  H
  C91      1.0000 0.15390  0.31740  0.38316  Biso   1.000  C
  H72      1.0000 0.16140  0.38030  0.37120  Biso   1.000  H
  C92      1.0000 0.21800  0.27500  0.40563  Biso   1.000  C
  C93      1.0000 0.20500  0.18040  0.42260  Biso   1.000  C
  H73      1.0000 0.24700  0.15040  0.43730  Biso   1.000  H
  C94      1.0000 0.13030  0.13050  0.41794  Biso   1.000  C
  H74      1.0000 0.12220  0.06730  0.42960  Biso   1.000  H
  C95      1.0000 0.38320  0.48510  0.42644  Biso   1.000  C
  C96      1.0000 0.44820  0.48130  0.39800  Biso   1.000  C
  H75      1.0000 0.44110  0.44210  0.37560  Biso   1.000  H
  C97      1.0000 0.52080  0.53450  0.40322  Biso   1.000  C
  H76      1.0000 0.56230  0.53210  0.38450  Biso   1.000  H
  C98      1.0000 0.53100  0.59130  0.43650  Biso   1.000  C
  C99      1.0000 0.46940  0.59540  0.46446  Biso   1.000  C
  H77      1.0000 0.47710  0.63390  0.48700  Biso   1.000  H
  C100     1.0000 0.39690  0.54280  0.45899  Biso   1.000  C
  H78      1.0000 0.35590  0.54650  0.47800  Biso   1.000  H
  C101     1.0000 0.65250  0.69860  0.41705  Biso   1.000  C
  H79      1.0000 0.64440  0.69920  0.39010  Biso   1.000  H
  C102     1.0000 0.69990  0.72240  0.47373  Biso   1.000  C
  H80      1.0000 0.73410  0.74490  0.49390  Biso   1.000  H
  Cd4      1.0000 0.19636  0.87867  0.08433  Biso   1.000  Cd
  K2       1.0000 0.15632  0.63116  0.17714  Biso   1.000  K
  Cl7      1.0000 0.22122  0.96078  0.01509  Biso   1.000  Cl
  Cl8      1.0000 0.18130  0.79657  0.15287  Biso   1.000  Cl
  N37      1.0000 0.31410  0.96740  0.10758  Biso   1.000  N
  N38      1.0000 0.42820  0.99160  0.14287  Biso   1.000  N
  N39      1.0000 0.42600  0.06020  0.11253  Biso   1.000  N
  N40      1.0000 0.98170  0.67680  0.05138  Biso   1.000  N
  N41      1.0000 0.01400  0.68740  0.01498  Biso   1.000  N
  N42      1.0000 0.08420  0.78360  0.05896  Biso   1.000  N
  N43      1.0000 0.11070  0.01410  0.10342  Biso   1.000  N
  N44      1.0000 0.06970  0.15430  0.13331  Biso   1.000  N
  N45      1.0000 0.00920  0.12120  0.10854  Biso   1.000  N
  N46      1.0000 0.39340  0.64680  0.05717  Biso   1.000  N
  N47      1.0000 0.36320  0.66250  0.02060  Biso   1.000  N
  N48      1.0000 0.28850  0.74910  0.06390  Biso   1.000  N
  C103     1.0000 0.36030  0.94030  0.13874  Biso   1.000  C
  H81      1.0000 0.34460  0.88890  0.15590  Biso   1.000  H
  C104     1.0000 0.35780  0.04470  0.09161  Biso   1.000  C
  H82      1.0000 0.34250  0.08110  0.06940  Biso   1.000  H
  C105     1.0000 0.49290  0.12910  0.10667  Biso   1.000  C
  C106     1.0000 0.55500  0.13840  0.13493  Biso   1.000  C
  H83      1.0000 0.55150  0.10210  0.15820  Biso   1.000  H
  C107     1.0000 0.62160  0.20160  0.12817  Biso   1.000  C
  H84      1.0000 0.66430  0.20430  0.14640  Biso   1.000  H
  C108     1.0000 0.62660  0.26200  0.09446  Biso   1.000  C
  C109     1.0000 0.56360  0.25290  0.06719  Biso   1.000  C
  H85      1.0000 0.56590  0.29150  0.04450  Biso   1.000  H
  C110     1.0000 0.49670  0.18710  0.07285  Biso   1.000  C
  H86      1.0000 0.45500  0.18230  0.05410  Biso   1.000  H
  C111     1.0000 0.70030  0.32900  0.08850  Biso   1.000  C
  C112     1.0000 0.69570  0.42850  0.07834  Biso   1.000  C
  C113     1.0000 0.77090  0.49270  0.07037  Biso   1.000  C
  C114     1.0000 0.78800  0.57830  0.09342  Biso   1.000  C
  H87      1.0000 0.75090  0.59580  0.11310  Biso   1.000  H
  C115     1.0000 0.85700  0.63720  0.08821  Biso   1.000  C
  H88      1.0000 0.86830  0.69180  0.10470  Biso   1.000  H
  C116     1.0000 0.91010  0.61290  0.05737  Biso   1.000  C
  C117     1.0000 0.89600  0.53000  0.03441  Biso   1.000  C
  H89      1.0000 0.93290  0.51350  0.01460  Biso   1.000  H
  C118     1.0000 0.82580  0.46960  0.04061  Biso   1.000  C
  H90      1.0000 0.81590  0.41360  0.02460  Biso   1.000  H
  C119     1.0000 0.02470  0.73300  0.07710  Biso   1.000  C
  H91      1.0000 0.01430  0.73600  0.10380  Biso   1.000  H
  C120     1.0000 0.07450  0.75300  0.02034  Biso   1.000  C
  H92      1.0000 0.10780  0.77670  0.00020  Biso   1.000  H
  C121     1.0000 0.12960  0.08980  0.12778  Biso   1.000  C
  H93      1.0000 0.18110  0.09590  0.13980  Biso   1.000  H
  C122     1.0000 0.03650  0.03640  0.09154  Biso   1.000  C
  H94      1.0000 0.00640  0.99830  0.07350  Biso   1.000  H
  C123     1.0000 0.93230  0.17360  0.10386  Biso   1.000  C
  C124     1.0000 0.92080  0.26610  0.12140  Biso   1.000  C
  H95      1.0000 0.96300  0.29470  0.13640  Biso   1.000  H
  C125     1.0000 0.84610  0.31740  0.11684  Biso   1.000  C
  H96      1.0000 0.83860  0.38030  0.12880  Biso   1.000  H
  C126     1.0000 0.78200  0.27500  0.09437  Biso   1.000  C
  C127     1.0000 0.79500  0.18040  0.07740  Biso   1.000  C
  H97      1.0000 0.75300  0.15040  0.06270  Biso   1.000  H
  C128     1.0000 0.86970  0.13050  0.08206  Biso   1.000  C
  H98      1.0000 0.87780  0.06730  0.07040  Biso   1.000  H
  C129     1.0000 0.61680  0.48510  0.07356  Biso   1.000  C
  C130     1.0000 0.55180  0.48130  0.10200  Biso   1.000  C
  H99      1.0000 0.55890  0.44210  0.12440  Biso   1.000  H
  C131     1.0000 0.47920  0.53450  0.09678  Biso   1.000  C
  H100     1.0000 0.43770  0.53210  0.11550  Biso   1.000  H
  C132     1.0000 0.46900  0.59130  0.06350  Biso   1.000  C
  C133     1.0000 0.53060  0.59540  0.03554  Biso   1.000  C
  H101     1.0000 0.52290  0.63390  0.01300  Biso   1.000  H
  C134     1.0000 0.60310  0.54280  0.04101  Biso   1.000  C
  H102     1.0000 0.64410  0.54650  0.02200  Biso   1.000  H
  C135     1.0000 0.34750  0.69860  0.08295  Biso   1.000  C
  H103     1.0000 0.35560  0.69920  0.10990  Biso   1.000  H
  C136     1.0000 0.30010  0.72240  0.02627  Biso   1.000  C
  H104     1.0000 0.26590  0.74490  0.00610  Biso   1.000  H
  Cd5      1.0000 0.19636  0.12133  0.58433  Biso   1.000  Cd
  K3       1.0000 0.15632  0.36884  0.67714  Biso   1.000  K
  Cl9      1.0000 0.22122  0.03922  0.51509  Biso   1.000  Cl
  Cl10     1.0000 0.18130  0.20343  0.65287  Biso   1.000  Cl
  N49      1.0000 0.31410  0.03260  0.60758  Biso   1.000  N
  N50      1.0000 0.42820  0.00840  0.64287  Biso   1.000  N
  N51      1.0000 0.42600  0.93980  0.61253  Biso   1.000  N
  N52      1.0000 0.98170  0.32320  0.55138  Biso   1.000  N
  N53      1.0000 0.01400  0.31260  0.51498  Biso   1.000  N
  N54      1.0000 0.08420  0.21640  0.55896  Biso   1.000  N
  N55      1.0000 0.11070  0.98590  0.60342  Biso   1.000  N
  N56      1.0000 0.06970  0.84570  0.63331  Biso   1.000  N
  N57      1.0000 0.00920  0.87880  0.60854  Biso   1.000  N
  N58      1.0000 0.39340  0.35320  0.55717  Biso   1.000  N
  N59      1.0000 0.36320  0.33750  0.52060  Biso   1.000  N
  N60      1.0000 0.28850  0.25090  0.56390  Biso   1.000  N
  C137     1.0000 0.36030  0.05970  0.63874  Biso   1.000  C
  H105     1.0000 0.34460  0.11110  0.65590  Biso   1.000  H
  C138     1.0000 0.35780  0.95530  0.59161  Biso   1.000  C
  H106     1.0000 0.34250  0.91890  0.56940  Biso   1.000  H
  C139     1.0000 0.49290  0.87090  0.60667  Biso   1.000  C
  C140     1.0000 0.55500  0.86160  0.63493  Biso   1.000  C
  H107     1.0000 0.55150  0.89790  0.65820  Biso   1.000  H
  C141     1.0000 0.62160  0.79840  0.62817  Biso   1.000  C
  H108     1.0000 0.66430  0.79570  0.64640  Biso   1.000  H
  C142     1.0000 0.62660  0.73800  0.59446  Biso   1.000  C
  C143     1.0000 0.56360  0.74710  0.56719  Biso   1.000  C
  H109     1.0000 0.56590  0.70850  0.54450  Biso   1.000  H
  C144     1.0000 0.49670  0.81290  0.57285  Biso   1.000  C
  H110     1.0000 0.45500  0.81770  0.55410  Biso   1.000  H
  C145     1.0000 0.70030  0.67100  0.58850  Biso   1.000  C
  C146     1.0000 0.69570  0.57150  0.57834  Biso   1.000  C
  C147     1.0000 0.77090  0.50730  0.57037  Biso   1.000  C
  C148     1.0000 0.78800  0.42170  0.59342  Biso   1.000  C
  H111     1.0000 0.75090  0.40420  0.61310  Biso   1.000  H
  C149     1.0000 0.85700  0.36280  0.58821  Biso   1.000  C
  H112     1.0000 0.86830  0.30820  0.60470  Biso   1.000  H
  C150     1.0000 0.91010  0.38710  0.55737  Biso   1.000  C
  C151     1.0000 0.89600  0.47000  0.53441  Biso   1.000  C
  H113     1.0000 0.93290  0.48650  0.51460  Biso   1.000  H
  C152     1.0000 0.82580  0.53040  0.54061  Biso   1.000  C
  H114     1.0000 0.81590  0.58640  0.52460  Biso   1.000  H
  C153     1.0000 0.02470  0.26700  0.57710  Biso   1.000  C
  H115     1.0000 0.01430  0.26400  0.60380  Biso   1.000  H
  C154     1.0000 0.07450  0.24700  0.52034  Biso   1.000  C
  H116     1.0000 0.10780  0.22330  0.50020  Biso   1.000  H
  C155     1.0000 0.12960  0.91020  0.62778  Biso   1.000  C
  H117     1.0000 0.18110  0.90410  0.63980  Biso   1.000  H
  C156     1.0000 0.03650  0.96360  0.59154  Biso   1.000  C
  H118     1.0000 0.00640  0.00170  0.57350  Biso   1.000  H
  C157     1.0000 0.93230  0.82640  0.60386  Biso   1.000  C
  C158     1.0000 0.92080  0.73390  0.62140  Biso   1.000  C
  H119     1.0000 0.96300  0.70530  0.63640  Biso   1.000  H
  C159     1.0000 0.84610  0.68260  0.61684  Biso   1.000  C
  H120     1.0000 0.83860  0.61970  0.62880  Biso   1.000  H
  C160     1.0000 0.78200  0.72500  0.59437  Biso   1.000  C
  C161     1.0000 0.79500  0.81960  0.57740  Biso   1.000  C
  H121     1.0000 0.75300  0.84960  0.56270  Biso   1.000  H
  C162     1.0000 0.86970  0.86950  0.58206  Biso   1.000  C
  H122     1.0000 0.87780  0.93270  0.57040  Biso   1.000  H
  C163     1.0000 0.61680  0.51490  0.57356  Biso   1.000  C
  C164     1.0000 0.55180  0.51870  0.60200  Biso   1.000  C
  H123     1.0000 0.55890  0.55790  0.62440  Biso   1.000  H
  C165     1.0000 0.47920  0.46550  0.59678  Biso   1.000  C
  H124     1.0000 0.43770  0.46790  0.61550  Biso   1.000  H
  C166     1.0000 0.46900  0.40870  0.56350  Biso   1.000  C
  C167     1.0000 0.53060  0.40460  0.53554  Biso   1.000  C
  H125     1.0000 0.52290  0.36610  0.51300  Biso   1.000  H
  C168     1.0000 0.60310  0.45720  0.54101  Biso   1.000  C
  H126     1.0000 0.64410  0.45350  0.52200  Biso   1.000  H
  C169     1.0000 0.34750  0.30140  0.58295  Biso   1.000  C
  H127     1.0000 0.35560  0.30080  0.60990  Biso   1.000  H
  C170     1.0000 0.30010  0.27760  0.52627  Biso   1.000  C
  H128     1.0000 0.26590  0.25510  0.50610  Biso   1.000  H
  Cd6      1.0000 0.80364  0.12133  0.91567  Biso   1.000  Cd
  K4       1.0000 0.84368  0.36884  0.82286  Biso   1.000  K
  Cl11     1.0000 0.77878  0.03922  0.98491  Biso   1.000  Cl
  Cl12     1.0000 0.81870  0.20343  0.84713  Biso   1.000  Cl
  N61      1.0000 0.68590  0.03260  0.89242  Biso   1.000  N
  N62      1.0000 0.57180  0.00840  0.85713  Biso   1.000  N
  N63      1.0000 0.57400  0.93980  0.88747  Biso   1.000  N
  N64      1.0000 0.01830  0.32320  0.94862  Biso   1.000  N
  N65      1.0000 0.98600  0.31260  0.98502  Biso   1.000  N
  N66      1.0000 0.91580  0.21640  0.94104  Biso   1.000  N
  N67      1.0000 0.88930  0.98590  0.89658  Biso   1.000  N
  N68      1.0000 0.93030  0.84570  0.86669  Biso   1.000  N
  N69      1.0000 0.99080  0.87880  0.89146  Biso   1.000  N
  N70      1.0000 0.60660  0.35320  0.94283  Biso   1.000  N
  N71      1.0000 0.63680  0.33750  0.97940  Biso   1.000  N
  N72      1.0000 0.71150  0.25090  0.93610  Biso   1.000  N
  C171     1.0000 0.63970  0.05970  0.86126  Biso   1.000  C
  H129     1.0000 0.65540  0.11110  0.84410  Biso   1.000  H
  C172     1.0000 0.64220  0.95530  0.90839  Biso   1.000  C
  H130     1.0000 0.65750  0.91890  0.93060  Biso   1.000  H
  C173     1.0000 0.50710  0.87090  0.89333  Biso   1.000  C
  C174     1.0000 0.44500  0.86160  0.86507  Biso   1.000  C
  H131     1.0000 0.44850  0.89790  0.84180  Biso   1.000  H
  C175     1.0000 0.37840  0.79840  0.87183  Biso   1.000  C
  H132     1.0000 0.33570  0.79570  0.85360  Biso   1.000  H
  C176     1.0000 0.37340  0.73800  0.90554  Biso   1.000  C
  C177     1.0000 0.43640  0.74710  0.93281  Biso   1.000  C
  H133     1.0000 0.43410  0.70850  0.95550  Biso   1.000  H
  C178     1.0000 0.50330  0.81290  0.92715  Biso   1.000  C
  H134     1.0000 0.54500  0.81770  0.94590  Biso   1.000  H
  C179     1.0000 0.29970  0.67100  0.91150  Biso   1.000  C
  C180     1.0000 0.30430  0.57150  0.92166  Biso   1.000  C
  C181     1.0000 0.22910  0.50730  0.92963  Biso   1.000  C
  C182     1.0000 0.21200  0.42170  0.90658  Biso   1.000  C
  H135     1.0000 0.24910  0.40420  0.88690  Biso   1.000  H
  C183     1.0000 0.14300  0.36280  0.91179  Biso   1.000  C
  H136     1.0000 0.13170  0.30820  0.89530  Biso   1.000  H
  C184     1.0000 0.08990  0.38710  0.94263  Biso   1.000  C
  C185     1.0000 0.10400  0.47000  0.96559  Biso   1.000  C
  H137     1.0000 0.06710  0.48650  0.98540  Biso   1.000  H
  C186     1.0000 0.17420  0.53040  0.95939  Biso   1.000  C
  H138     1.0000 0.18410  0.58640  0.97540  Biso   1.000  H
  C187     1.0000 0.97530  0.26700  0.92290  Biso   1.000  C
  H139     1.0000 0.98570  0.26400  0.89620  Biso   1.000  H
  C188     1.0000 0.92550  0.24700  0.97966  Biso   1.000  C
  H140     1.0000 0.89220  0.22330  0.99980  Biso   1.000  H
  C189     1.0000 0.87040  0.91020  0.87222  Biso   1.000  C
  H141     1.0000 0.81890  0.90410  0.86020  Biso   1.000  H
  C190     1.0000 0.96350  0.96360  0.90846  Biso   1.000  C
  H142     1.0000 0.99360  0.00170  0.92650  Biso   1.000  H
  C191     1.0000 0.06770  0.82640  0.89614  Biso   1.000  C
  C192     1.0000 0.07920  0.73390  0.87860  Biso   1.000  C
  H143     1.0000 0.03700  0.70530  0.86360  Biso   1.000  H
  C193     1.0000 0.15390  0.68260  0.88316  Biso   1.000  C
  H144     1.0000 0.16140  0.61970  0.87120  Biso   1.000  H
  C194     1.0000 0.21800  0.72500  0.90563  Biso   1.000  C
  C195     1.0000 0.20500  0.81960  0.92260  Biso   1.000  C
  H145     1.0000 0.24700  0.84960  0.93730  Biso   1.000  H
  C196     1.0000 0.13030  0.86950  0.91794  Biso   1.000  C
  H146     1.0000 0.12220  0.93270  0.92960  Biso   1.000  H
  C197     1.0000 0.38320  0.51490  0.92644  Biso   1.000  C
  C198     1.0000 0.44820  0.51870  0.89800  Biso   1.000  C
  H147     1.0000 0.44110  0.55790  0.87560  Biso   1.000  H
  C199     1.0000 0.52080  0.46550  0.90322  Biso   1.000  C
  H148     1.0000 0.56230  0.46790  0.88450  Biso   1.000  H
  C200     1.0000 0.53100  0.40870  0.93650  Biso   1.000  C
  C201     1.0000 0.46940  0.40460  0.96446  Biso   1.000  C
  H149     1.0000 0.47710  0.36610  0.98700  Biso   1.000  H
  C202     1.0000 0.39690  0.45720  0.95899  Biso   1.000  C
  H150     1.0000 0.35590  0.45350  0.97800  Biso   1.000  H
  C203     1.0000 0.65250  0.30140  0.91705  Biso   1.000  C
  H151     1.0000 0.64440  0.30080  0.89010  Biso   1.000  H
  C204     1.0000 0.69990  0.27760  0.97373  Biso   1.000  C
  H152     1.0000 0.73410  0.25510  0.99390  Biso   1.000  H
