data_image0
_cell_length_a       6.6058
_cell_length_b       24.886
_cell_length_c       14.6272
_cell_angle_alpha    90
_cell_angle_beta     102.224
_cell_angle_gamma    90

_symmetry_space_group_name_H-M    "P 1"
_symmetry_int_tables_number       1

loop_
  _symmetry_equiv_pos_as_xyz
  'x, y, z'

loop_
  _atom_site_label
  _atom_site_occupancy
  _atom_site_fract_x
  _atom_site_fract_y
  _atom_site_fract_z
  _atom_site_thermal_displace_type
  _atom_site_B_iso_or_equiv
  _atom_site_type_symbol
  O1       1.0000 0.82150  0.17010  0.42850  Biso   1.000  O
  C1       1.0000 0.72960  0.19441  0.34220  Biso   1.000  C
  H1       1.0000 0.83110  0.19320  0.30030  Biso   1.000  H
  C2       1.0000 0.53220  0.16532  0.29360  Biso   1.000  C
  H2       1.0000 0.46220  0.18580  0.23680  Biso   1.000  H
  C3       1.0000 0.38510  0.15842  0.36030  Biso   1.000  C
  H3       1.0000 0.33820  0.19470  0.37670  Biso   1.000  H
  C4       1.0000 0.49930  0.13115  0.44870  Biso   1.000  C
  H4       1.0000 0.55190  0.09570  0.43150  Biso   1.000  H
  C5       1.0000 0.68470  0.16595  0.49330  Biso   1.000  C
  H5       1.0000 0.63550  0.20260  0.50650  Biso   1.000  H
  C6       1.0000 0.81640  0.14260  0.58220  Biso   1.000  C
  H6       1.0000 0.94090  0.16520  0.60290  Biso   1.000  H
  H7       1.0000 0.73630  0.14280  0.63230  Biso   1.000  H
  O2       1.0000 0.67540  0.24895  0.35330  Biso   1.000  O
  O3       1.0000 0.20740  0.12729  0.31860  Biso   1.000  O
  H8       1.0000 0.15870  0.13880  0.26440  Biso   1.000  H
  O4       1.0000 0.36270  0.12193  0.51050  Biso   1.000  O
  H9       1.0000 0.40410  0.09530  0.54460  Biso   1.000  H
  O5       1.0000 0.87830  0.08902  0.56760  Biso   1.000  O
  H10      1.0000 0.77720  0.06820  0.56520  Biso   1.000  H
  C7       1.0000 0.83720  0.28580  0.36590  Biso   1.000  C
  C8       1.0000 0.78150  0.33940  0.35370  Biso   1.000  C
  H11      1.0000 0.63940  0.34930  0.33970  Biso   1.000  H
  C9       1.0000 0.93490  0.37895  0.36190  Biso   1.000  C
  H12      1.0000 0.89720  0.41570  0.35290  Biso   1.000  H
  C10      1.0000 0.14040  0.36440  0.38300  Biso   1.000  C
  C11      1.0000 0.19610  0.31090  0.39770  Biso   1.000  C
  H13      1.0000 0.33810  0.30100  0.41300  Biso   1.000  H
  C12      1.0000 0.04370  0.27180  0.38990  Biso   1.000  C
  H14      1.0000 0.08170  0.23520  0.40120  Biso   1.000  H
  O6       1.0000 0.20030  0.46648  0.48190  Biso   1.000  O
  C13      1.0000 0.26780  0.45512  0.39900  Biso   1.000  C
  H15      1.0000 0.15830  0.46670  0.34430  Biso   1.000  H
  C14      1.0000 0.47000  0.48461  0.39560  Biso   1.000  C
  H16      1.0000 0.52000  0.47120  0.33980  Biso   1.000  H
  C15      1.0000 0.63450  0.47015  0.48360  Biso   1.000  C
  H17      1.0000 0.67780  0.43190  0.47890  Biso   1.000  H
  C16      1.0000 0.55310  0.47718  0.57280  Biso   1.000  C
  H18      1.0000 0.54370  0.51640  0.58650  Biso   1.000  H
  C17      1.0000 0.34210  0.45120  0.56660  Biso   1.000  C
  H19      1.0000 0.35910  0.41120  0.56710  Biso   1.000  H
  C18      1.0000 0.24200  0.46720  0.64620  Biso   1.000  C
  H20      1.0000 0.10930  0.44760  0.64020  Biso   1.000  H
  H21      1.0000 0.33320  0.45620  0.70600  Biso   1.000  H
  O7       1.0000 0.30780  0.39933  0.39010  Biso   1.000  O
  O8       1.0000 0.43670  0.53992  0.38460  Biso   1.000  O
  H22      1.0000 0.32990  0.54850  0.40370  Biso   1.000  H
  O9       1.0000 0.81100  0.50415  0.48970  Biso   1.000  O
  O10      1.0000 0.69800  0.45224  0.64690  Biso   1.000  O
  H23      1.0000 0.79770  0.44000  0.62600  Biso   1.000  H
  O11      1.0000 0.20330  0.52352  0.64860  Biso   1.000  O
  H24      1.0000 0.30570  0.53880  0.68250  Biso   1.000  H
  Na1      1.0000 0.03700  0.08495  0.43247  Biso   1.000  Na
  O12      1.0000 0.58800  0.11317  0.26760  Biso   1.000  O
  H25      1.0000 0.63820  0.11540  0.21960  Biso   1.000  H
  O13      1.0000 0.17850  0.67010  0.57150  Biso   1.000  O
  C19      1.0000 0.27040  0.69441  0.65780  Biso   1.000  C
  H26      1.0000 0.16890  0.69320  0.69970  Biso   1.000  H
  C20      1.0000 0.46780  0.66532  0.70640  Biso   1.000  C
  H27      1.0000 0.53780  0.68580  0.76320  Biso   1.000  H
  C21      1.0000 0.61490  0.65842  0.63970  Biso   1.000  C
  H28      1.0000 0.66180  0.69470  0.62330  Biso   1.000  H
  C22      1.0000 0.50070  0.63115  0.55130  Biso   1.000  C
  H29      1.0000 0.44810  0.59570  0.56850  Biso   1.000  H
  C23      1.0000 0.31530  0.66595  0.50670  Biso   1.000  C
  H30      1.0000 0.36450  0.70260  0.49350  Biso   1.000  H
  C24      1.0000 0.18360  0.64260  0.41780  Biso   1.000  C
  H31      1.0000 0.05910  0.66520  0.39710  Biso   1.000  H
  H32      1.0000 0.26370  0.64280  0.36770  Biso   1.000  H
  O14      1.0000 0.32460  0.74895  0.64670  Biso   1.000  O
  O15      1.0000 0.79260  0.62729  0.68140  Biso   1.000  O
  H33      1.0000 0.84130  0.63880  0.73560  Biso   1.000  H
  O16      1.0000 0.63730  0.62193  0.48950  Biso   1.000  O
  H34      1.0000 0.59590  0.59530  0.45540  Biso   1.000  H
  O17      1.0000 0.12170  0.58902  0.43240  Biso   1.000  O
  H35      1.0000 0.22280  0.56820  0.43480  Biso   1.000  H
  C25      1.0000 0.16280  0.78580  0.63410  Biso   1.000  C
  C26      1.0000 0.21850  0.83940  0.64630  Biso   1.000  C
  H36      1.0000 0.36060  0.84930  0.66030  Biso   1.000  H
  C27      1.0000 0.06510  0.87895  0.63810  Biso   1.000  C
  H37      1.0000 0.10280  0.91570  0.64710  Biso   1.000  H
  C28      1.0000 0.85960  0.86440  0.61700  Biso   1.000  C
  C29      1.0000 0.80390  0.81090  0.60230  Biso   1.000  C
  H38      1.0000 0.66190  0.80100  0.58700  Biso   1.000  H
  C30      1.0000 0.95630  0.77180  0.61010  Biso   1.000  C
  H39      1.0000 0.91830  0.73520  0.59880  Biso   1.000  H
  O18      1.0000 0.79970  0.96648  0.51810  Biso   1.000  O
  C31      1.0000 0.73220  0.95512  0.60100  Biso   1.000  C
  H40      1.0000 0.84170  0.96670  0.65570  Biso   1.000  H
  C32      1.0000 0.53000  0.98461  0.60440  Biso   1.000  C
  H41      1.0000 0.48000  0.97120  0.66020  Biso   1.000  H
  C33      1.0000 0.36550  0.97015  0.51640  Biso   1.000  C
  H42      1.0000 0.32220  0.93190  0.52110  Biso   1.000  H
  C34      1.0000 0.44690  0.97718  0.42720  Biso   1.000  C
  H43      1.0000 0.45630  0.01640  0.41350  Biso   1.000  H
  C35      1.0000 0.65790  0.95120  0.43340  Biso   1.000  C
  H44      1.0000 0.64090  0.91120  0.43290  Biso   1.000  H
  C36      1.0000 0.75800  0.96720  0.35380  Biso   1.000  C
  H45      1.0000 0.89070  0.94760  0.35980  Biso   1.000  H
  H46      1.0000 0.66680  0.95620  0.29400  Biso   1.000  H
  O19      1.0000 0.69220  0.89933  0.60990  Biso   1.000  O
  O20      1.0000 0.56330  0.03992  0.61540  Biso   1.000  O
  H47      1.0000 0.67010  0.04850  0.59630  Biso   1.000  H
  O21      1.0000 0.18900  0.00415  0.51030  Biso   1.000  O
  O22      1.0000 0.30200  0.95224  0.35310  Biso   1.000  O
  H48      1.0000 0.20230  0.94000  0.37400  Biso   1.000  H
  O23      1.0000 0.79670  0.02352  0.35140  Biso   1.000  O
  H49      1.0000 0.69430  0.03880  0.31750  Biso   1.000  H
  Na2      1.0000 0.96300  0.58495  0.56753  Biso   1.000  Na
  O24      1.0000 0.41200  0.61317  0.73240  Biso   1.000  O
  H50      1.0000 0.36180  0.61540  0.78040  Biso   1.000  H
  O25      1.0000 0.72560  0.22434  0.02300  Biso   1.000  O
  C37      1.0000 0.85740  0.24020  0.10820  Biso   1.000  C
  H51      1.0000 0.78860  0.23130  0.16100  Biso   1.000  H
  C38      1.0000 0.06840  0.21196  0.12480  Biso   1.000  C
  H52      1.0000 0.16080  0.22850  0.18070  Biso   1.000  H
  C39      1.0000 0.16270  0.22210  0.03920  Biso   1.000  C
  H53      1.0000 0.19530  0.26120  0.03660  Biso   1.000  H
  C40      1.0000 0.01820  0.20640  0.94890  Biso   1.000  C
  H54      1.0000 0.99940  0.16650  0.94870  Biso   1.000  H
  C41      1.0000 0.80830  0.23250  0.93960  Biso   1.000  C
  H55      1.0000 0.82230  0.27200  0.92940  Biso   1.000  H
  C42      1.0000 0.64230  0.20950  0.85900  Biso   1.000  C
  H56      1.0000 0.51400  0.23110  0.85210  Biso   1.000  H
  H57      1.0000 0.69170  0.21220  0.79980  Biso   1.000  H
  O26      1.0000 0.59760  0.15491  0.87550  Biso   1.000  O
  H58      1.0000 0.64510  0.13510  0.83860  Biso   1.000  H
  O27      1.0000 0.89720  0.29630  0.10920  Biso   1.000  O
  O28      1.0000 0.04230  0.15746  0.14370  Biso   1.000  O
  H59      1.0000 0.08460  0.13860  0.10390  Biso   1.000  H
  O29      1.0000 0.35210  0.19230  0.05190  Biso   1.000  O
  H60      1.0000 0.44120  0.21050  0.03220  Biso   1.000  H
  O30      1.0000 0.10200  0.22085  0.86990  Biso   1.000  O
  H61      1.0000 0.21840  0.20630  0.87430  Biso   1.000  H
  C43      1.0000 0.73220  0.33080  0.10890  Biso   1.000  C
  C44      1.0000 0.54740  0.31690  0.13230  Biso   1.000  C
  H62      1.0000 0.52300  0.28070  0.14730  Biso   1.000  H
  C45      1.0000 0.39630  0.35580  0.13400  Biso   1.000  C
  H63      1.0000 0.27020  0.34600  0.15090  Biso   1.000  H
  C46      1.0000 0.42910  0.40810  0.11120  Biso   1.000  C
  C47      1.0000 0.61440  0.42190  0.08720  Biso   1.000  C
  H64      1.0000 0.63710  0.45790  0.07040  Biso   1.000  H
  C48      1.0000 0.76650  0.38370  0.08720  Biso   1.000  C
  H65      1.0000 0.89450  0.39380  0.07230  Biso   1.000  H
  O31      1.0000 0.35690  0.52322  0.04140  Biso   1.000  O
  C49      1.0000 0.33230  0.49904  0.12630  Biso   1.000  C
  H66      1.0000 0.46800  0.50070  0.17210  Biso   1.000  H
  C50      1.0000 0.16660  0.52708  0.17000  Biso   1.000  C
  H67      1.0000 0.12790  0.50230  0.21740  Biso   1.000  H
  C51      1.0000 0.97240  0.53990  0.09700  Biso   1.000  C
  H68      1.0000 0.89700  0.50540  0.07830  Biso   1.000  H
  C52      1.0000 0.02420  0.56496  0.01030  Biso   1.000  C
  H69      1.0000 0.09960  0.59950  0.02860  Biso   1.000  H
  C53      1.0000 0.16720  0.52719  0.97170  Biso   1.000  C
  H70      1.0000 0.10150  0.49090  0.96030  Biso   1.000  H
  C54      1.0000 0.21900  0.54820  0.88190  Biso   1.000  C
  H71      1.0000 0.32480  0.52470  0.86360  Biso   1.000  H
  H72      1.0000 0.09330  0.54710  0.83120  Biso   1.000  H
  O32      1.0000 0.27250  0.44434  0.11270  Biso   1.000  O
  O33      1.0000 0.25490  0.57428  0.21690  Biso   1.000  O
  H73      1.0000 0.30700  0.56700  0.27300  Biso   1.000  H
  O34      1.0000 0.83600  0.57529  0.13010  Biso   1.000  O
  H74      1.0000 0.88690  0.58370  0.18590  Biso   1.000  H
  O35      1.0000 0.83760  0.57665  0.94420  Biso   1.000  O
  O36      1.0000 0.29580  0.60224  0.89290  Biso   1.000  O
  H75      1.0000 0.19620  0.62360  0.89010  Biso   1.000  H
  Na3      1.0000 0.57020  0.61069  0.02162  Biso   1.000  Na
  O37      1.0000 0.27440  0.72434  0.97700  Biso   1.000  O
  C55      1.0000 0.14260  0.74020  0.89180  Biso   1.000  C
  H76      1.0000 0.21140  0.73130  0.83900  Biso   1.000  H
  C56      1.0000 0.93160  0.71196  0.87520  Biso   1.000  C
  H77      1.0000 0.83920  0.72850  0.81930  Biso   1.000  H
  C57      1.0000 0.83730  0.72210  0.96080  Biso   1.000  C
  H78      1.0000 0.80470  0.76120  0.96340  Biso   1.000  H
  C58      1.0000 0.98180  0.70640  0.05110  Biso   1.000  C
  H79      1.0000 0.00060  0.66650  0.05130  Biso   1.000  H
  C59      1.0000 0.19170  0.73250  0.06040  Biso   1.000  C
  H80      1.0000 0.17770  0.77200  0.07060  Biso   1.000  H
  C60      1.0000 0.35770  0.70950  0.14100  Biso   1.000  C
  H81      1.0000 0.48600  0.73110  0.14790  Biso   1.000  H
  H82      1.0000 0.30830  0.71220  0.20020  Biso   1.000  H
  O38      1.0000 0.40240  0.65491  0.12450  Biso   1.000  O
  H83      1.0000 0.35490  0.63510  0.16140  Biso   1.000  H
  O39      1.0000 0.10280  0.79630  0.89080  Biso   1.000  O
  O40      1.0000 0.95770  0.65746  0.85630  Biso   1.000  O
  H84      1.0000 0.91540  0.63860  0.89610  Biso   1.000  H
  O41      1.0000 0.64790  0.69230  0.94810  Biso   1.000  O
  H85      1.0000 0.55880  0.71050  0.96780  Biso   1.000  H
  O42      1.0000 0.89800  0.72085  0.13010  Biso   1.000  O
  H86      1.0000 0.78160  0.70630  0.12570  Biso   1.000  H
  C61      1.0000 0.26780  0.83080  0.89110  Biso   1.000  C
  C62      1.0000 0.45260  0.81690  0.86770  Biso   1.000  C
  H87      1.0000 0.47700  0.78070  0.85270  Biso   1.000  H
  C63      1.0000 0.60370  0.85580  0.86600  Biso   1.000  C
  H88      1.0000 0.72980  0.84600  0.84910  Biso   1.000  H
  C64      1.0000 0.57090  0.90810  0.88880  Biso   1.000  C
  C65      1.0000 0.38560  0.92190  0.91280  Biso   1.000  C
  H89      1.0000 0.36290  0.95790  0.92960  Biso   1.000  H
  C66      1.0000 0.23350  0.88370  0.91280  Biso   1.000  C
  H90      1.0000 0.10550  0.89380  0.92770  Biso   1.000  H
  O43      1.0000 0.64310  0.02322  0.95860  Biso   1.000  O
  C67      1.0000 0.66770  0.99904  0.87370  Biso   1.000  C
  H91      1.0000 0.53200  0.00070  0.82790  Biso   1.000  H
  C68      1.0000 0.83340  0.02708  0.83000  Biso   1.000  C
  H92      1.0000 0.87210  0.00230  0.78260  Biso   1.000  H
  C69      1.0000 0.02760  0.03990  0.90300  Biso   1.000  C
  H93      1.0000 0.10300  0.00540  0.92170  Biso   1.000  H
  C70      1.0000 0.97580  0.06496  0.98970  Biso   1.000  C
  H94      1.0000 0.90040  0.09950  0.97140  Biso   1.000  H
  C71      1.0000 0.83280  0.02719  0.02830  Biso   1.000  C
  H95      1.0000 0.89850  0.99090  0.03970  Biso   1.000  H
  C72      1.0000 0.78100  0.04820  0.11810  Biso   1.000  C
  H96      1.0000 0.67520  0.02470  0.13640  Biso   1.000  H
  H97      1.0000 0.90670  0.04710  0.16880  Biso   1.000  H
  O44      1.0000 0.72750  0.94434  0.88730  Biso   1.000  O
  O45      1.0000 0.74510  0.07428  0.78310  Biso   1.000  O
  H98      1.0000 0.69300  0.06700  0.72700  Biso   1.000  H
  O46      1.0000 0.16400  0.07529  0.86990  Biso   1.000  O
  H99      1.0000 0.11310  0.08370  0.81410  Biso   1.000  H
  O47      1.0000 0.16240  0.07665  0.05580  Biso   1.000  O
  O48      1.0000 0.70420  0.10224  0.10710  Biso   1.000  O
  H100     1.0000 0.80380  0.12360  0.10990  Biso   1.000  H
  Na4      1.0000 0.42980  0.11069  0.97838  Biso   1.000  Na
