data_image0
_cell_length_a       11.479
_cell_length_b       8.356
_cell_length_c       12.079
_cell_angle_alpha    90
_cell_angle_beta     104.039
_cell_angle_gamma    90

_symmetry_space_group_name_H-M    "P 1"
_symmetry_int_tables_number       1

loop_
  _symmetry_equiv_pos_as_xyz
  'x, y, z'

loop_
  _atom_site_label
  _atom_site_occupancy
  _atom_site_fract_x
  _atom_site_fract_y
  _atom_site_fract_z
  _atom_site_thermal_displace_type
  _atom_site_B_iso_or_equiv
  _atom_site_type_symbol
  Co1      1.0000 0.14837  0.51734  0.35107  Biso   1.000  Co
  C1       1.0000 0.53850  0.42070  0.71030  Biso   1.000  C
  H1       1.0000 0.55530  0.53090  0.72570  Biso   1.000  H
  C2       1.0000 0.42700  0.36200  0.71570  Biso   1.000  C
  H2       1.0000 0.37090  0.43270  0.73620  Biso   1.000  H
  C3       1.0000 0.62580  0.32580  0.68340  Biso   1.000  C
  H3       1.0000 0.70210  0.36760  0.68100  Biso   1.000  H
  C4       1.0000 0.59700  0.16660  0.66020  Biso   1.000  C
  C5       1.0000 0.39500  0.20410  0.69220  Biso   1.000  C
  H4       1.0000 0.31810  0.16410  0.69450  Biso   1.000  H
  C6       1.0000 0.48340  0.10640  0.66460  Biso   1.000  C
  C7       1.0000 0.59260  0.91140  0.62000  Biso   1.000  C
  H5       1.0000 0.61530  0.80790  0.60020  Biso   1.000  H
  C8       1.0000 0.26030  0.71930  0.89490  Biso   1.000  C
  C9       1.0000 0.16280  0.41160  0.00150  Biso   1.000  C
  C10      1.0000 0.38320  0.79810  0.76550  Biso   1.000  C
  C11      1.0000 0.26950  0.75720  0.78390  Biso   1.000  C
  H6       1.0000 0.20040  0.75540  0.72190  Biso   1.000  H
  C12      1.0000 0.13300  0.68620  0.90910  Biso   1.000  C
  H7       1.0000 0.09640  0.78780  0.92590  Biso   1.000  H
  H8       1.0000 0.08290  0.64330  0.83660  Biso   1.000  H
  C13      1.0000 0.15990  0.35750  0.11070  Biso   1.000  C
  C14      1.0000 0.18470  0.19630  0.13990  Biso   1.000  C
  H9       1.0000 0.18330  0.15820  0.21360  Biso   1.000  H
  C15      1.0000 0.21080  0.15370  0.94960  Biso   1.000  C
  H10      1.0000 0.22810  0.08190  0.89470  Biso   1.000  H
  C16      1.0000 0.21130  0.09400  0.05950  Biso   1.000  C
  H11      1.0000 0.22980  0.98480  0.07770  Biso   1.000  H
  C17      1.0000 0.35780  0.72260  0.98290  Biso   1.000  C
  H12      1.0000 0.35020  0.69440  0.05700  Biso   1.000  H
  C18      1.0000 0.48030  0.80310  0.85580  Biso   1.000  C
  H13      1.0000 0.55630  0.83150  0.84330  Biso   1.000  H
  C19      1.0000 0.11760  0.61020  0.10540  Biso   1.000  C
  H14      1.0000 0.09890  0.71480  0.12670  Biso   1.000  H
  C20      1.0000 0.18640  0.31030  0.91880  Biso   1.000  C
  H15      1.0000 0.18580  0.34760  0.84430  Biso   1.000  H
  C21      1.0000 0.47160  0.76730  0.96740  Biso   1.000  C
  H16      1.0000 0.53980  0.77300  0.03010  Biso   1.000  H
  C22      1.0000 0.38850  0.83070  0.64450  Biso   1.000  C
  H17      1.0000 0.40260  0.72890  0.60780  Biso   1.000  H
  H18      1.0000 0.31030  0.87410  0.60160  Biso   1.000  H
  N1       1.0000 0.13050  0.48430  0.17340  Biso   1.000  N
  N2       1.0000 0.13430  0.57120  0.00150  Biso   1.000  N
  N3       1.0000 0.48490  0.94590  0.63830  Biso   1.000  N
  N4       1.0000 0.66480  0.03980  0.63270  Biso   1.000  N
  Co2      1.0000 0.85163  0.01734  0.64893  Biso   1.000  Co
  C23      1.0000 0.46150  0.92070  0.28970  Biso   1.000  C
  H19      1.0000 0.44470  0.03090  0.27430  Biso   1.000  H
  C24      1.0000 0.57300  0.86200  0.28430  Biso   1.000  C
  H20      1.0000 0.62910  0.93270  0.26380  Biso   1.000  H
  C25      1.0000 0.37420  0.82580  0.31660  Biso   1.000  C
  H21      1.0000 0.29790  0.86760  0.31900  Biso   1.000  H
  C26      1.0000 0.40300  0.66660  0.33980  Biso   1.000  C
  C27      1.0000 0.60500  0.70410  0.30780  Biso   1.000  C
  H22      1.0000 0.68190  0.66410  0.30550  Biso   1.000  H
  C28      1.0000 0.51660  0.60640  0.33540  Biso   1.000  C
  C29      1.0000 0.40740  0.41140  0.38000  Biso   1.000  C
  H23      1.0000 0.38470  0.30790  0.39980  Biso   1.000  H
  C30      1.0000 0.73970  0.21930  0.10510  Biso   1.000  C
  C31      1.0000 0.83720  0.91160  0.99850  Biso   1.000  C
  C32      1.0000 0.61680  0.29810  0.23450  Biso   1.000  C
  C33      1.0000 0.73050  0.25720  0.21610  Biso   1.000  C
  H24      1.0000 0.79960  0.25540  0.27810  Biso   1.000  H
  C34      1.0000 0.86700  0.18620  0.09090  Biso   1.000  C
  H25      1.0000 0.90360  0.28780  0.07410  Biso   1.000  H
  H26      1.0000 0.91710  0.14330  0.16340  Biso   1.000  H
  C35      1.0000 0.84010  0.85750  0.88930  Biso   1.000  C
  C36      1.0000 0.81530  0.69630  0.86010  Biso   1.000  C
  H27      1.0000 0.81670  0.65820  0.78640  Biso   1.000  H
  C37      1.0000 0.78920  0.65370  0.05040  Biso   1.000  C
  H28      1.0000 0.77190  0.58190  0.10530  Biso   1.000  H
  C38      1.0000 0.78870  0.59400  0.94050  Biso   1.000  C
  H29      1.0000 0.77020  0.48480  0.92230  Biso   1.000  H
  C39      1.0000 0.64220  0.22260  0.01710  Biso   1.000  C
  H30      1.0000 0.64980  0.19440  0.94300  Biso   1.000  H
  C40      1.0000 0.51970  0.30310  0.14420  Biso   1.000  C
  H31      1.0000 0.44370  0.33150  0.15670  Biso   1.000  H
  C41      1.0000 0.88240  0.11020  0.89460  Biso   1.000  C
  H32      1.0000 0.90110  0.21480  0.87330  Biso   1.000  H
  C42      1.0000 0.81360  0.81030  0.08120  Biso   1.000  C
  H33      1.0000 0.81420  0.84760  0.15570  Biso   1.000  H
  C43      1.0000 0.52840  0.26730  0.03260  Biso   1.000  C
  H34      1.0000 0.46020  0.27300  0.96990  Biso   1.000  H
  C44      1.0000 0.61150  0.33070  0.35550  Biso   1.000  C
  H35      1.0000 0.59740  0.22890  0.39220  Biso   1.000  H
  H36      1.0000 0.68970  0.37410  0.39840  Biso   1.000  H
  N5       1.0000 0.86950  0.98430  0.82660  Biso   1.000  N
  N6       1.0000 0.86570  0.07120  0.99850  Biso   1.000  N
  N7       1.0000 0.51510  0.44590  0.36170  Biso   1.000  N
  N8       1.0000 0.33520  0.53980  0.36730  Biso   1.000  N
