data_image0
_cell_length_a       8.8932
_cell_length_b       11.8369
_cell_length_c       15.1942
_cell_angle_alpha    72.926
_cell_angle_beta     88.754
_cell_angle_gamma    88.696

_symmetry_space_group_name_H-M    "P 1"
_symmetry_int_tables_number       1

loop_
  _symmetry_equiv_pos_as_xyz
  'x, y, z'

loop_
  _atom_site_label
  _atom_site_occupancy
  _atom_site_fract_x
  _atom_site_fract_y
  _atom_site_fract_z
  _atom_site_thermal_displace_type
  _atom_site_B_iso_or_equiv
  _atom_site_type_symbol
  C1       1.0000 0.51850  0.71130  0.07620  Biso   1.000  C
  H1       1.0000 0.61790  0.72670  0.05710  Biso   1.000  H
  C2       1.0000 0.47630  0.59730  0.10860  Biso   1.000  C
  H2       1.0000 0.54750  0.53760  0.11140  Biso   1.000  H
  C3       1.0000 0.33170  0.56730  0.13740  Biso   1.000  C
  C4       1.0000 0.23330  0.66350  0.13390  Biso   1.000  C
  H3       1.0000 0.13410  0.65070  0.15450  Biso   1.000  H
  C5       1.0000 0.28520  0.77510  0.09990  Biso   1.000  C
  H4       1.0000 0.21720  0.83680  0.09740  Biso   1.000  H
  C6       1.0000 0.28020  0.44450  0.16850  Biso   1.000  C
  C7       1.0000 0.34960  0.36020  0.13600  Biso   1.000  C
  H5       1.0000 0.43400  0.38000  0.09780  Biso   1.000  H
  C8       1.0000 0.29780  0.24740  0.15850  Biso   1.000  C
  H6       1.0000 0.34580  0.19330  0.13320  Biso   1.000  H
  C9       1.0000 0.17710  0.21110  0.21710  Biso   1.000  C
  C10      1.0000 0.11220  0.29240  0.25300  Biso   1.000  C
  H7       1.0000 0.03210  0.27020  0.29450  Biso   1.000  H
  C11      1.0000 0.16120  0.40790  0.22990  Biso   1.000  C
  H8       1.0000 0.11360  0.46150  0.25590  Biso   1.000  H
  C12      1.0000 0.12340  0.08850  0.24060  Biso   1.000  C
  C13      1.0000 0.12670  0.99480  0.31920  Biso   1.000  C
  C14      1.0000 0.01920  0.93310  0.21830  Biso   1.000  C
  H9       1.0000 0.97110  0.88520  0.18940  Biso   1.000  H
  C15      1.0000 0.02160  0.11190  0.08050  Biso   1.000  C
  H10      1.0000 0.99410  0.19250  0.07820  Biso   1.000  H
  H11      1.0000 0.93550  0.07740  0.06060  Biso   1.000  H
  C16      1.0000 0.15160  0.11500  0.01260  Biso   1.000  C
  C17      1.0000 0.18660  0.98830  0.41020  Biso   1.000  C
  C18      1.0000 0.15390  0.89880  0.48500  Biso   1.000  C
  H12      1.0000 0.09530  0.83780  0.47850  Biso   1.000  H
  C19      1.0000 0.20420  0.89390  0.57190  Biso   1.000  C
  H13      1.0000 0.18060  0.82860  0.62140  Biso   1.000  H
  C20      1.0000 0.28660  0.98090  0.58720  Biso   1.000  C
  C21      1.0000 0.32450  0.06820  0.51110  Biso   1.000  C
  H14      1.0000 0.38370  0.12870  0.51820  Biso   1.000  H
  C22      1.0000 0.28030  0.07340  0.42270  Biso   1.000  C
  H15      1.0000 0.31380  0.13380  0.37230  Biso   1.000  H
  C23      1.0000 0.33480  0.97890  0.67940  Biso   1.000  C
  C24      1.0000 0.30880  0.88820  0.75730  Biso   1.000  C
  H16      1.0000 0.26130  0.82080  0.75310  Biso   1.000  H
  C25      1.0000 0.35260  0.89490  0.84340  Biso   1.000  C
  H17      1.0000 0.33210  0.83110  0.89470  Biso   1.000  H
  C26      1.0000 0.38800  0.08300  0.78850  Biso   1.000  C
  H18      1.0000 0.39290  0.15500  0.80190  Biso   1.000  H
  C27      1.0000 0.34800  0.08750  0.69980  Biso   1.000  C
  H19      1.0000 0.33120  0.15930  0.65520  Biso   1.000  H
  C28      1.0000 0.48000  0.06270  0.77900  Biso   1.000  C
  H20      1.0000 0.54540  0.11980  0.78610  Biso   1.000  H
  C29      1.0000 0.45000  0.06040  0.69090  Biso   1.000  C
  H21      1.0000 0.50040  0.10920  0.64020  Biso   1.000  H
  N1       1.0000 0.42430  0.80370  0.07020  Biso   1.000  N
  N2       1.0000 0.42050  0.98550  0.85630  Biso   1.000  N
  N3       1.0000 0.05340  0.04520  0.17640  Biso   1.000  N
  N4       1.0000 0.05990  0.89780  0.30350  Biso   1.000  N
  O1       1.0000 0.26690  0.04940  0.04480  Biso   1.000  O
  O2       1.0000 0.13250  0.17640  0.93340  Biso   1.000  O
  C30      1.0000 0.48150  0.28870  0.92380  Biso   1.000  C
  H22      1.0000 0.38210  0.27330  0.94290  Biso   1.000  H
  C31      1.0000 0.52370  0.40270  0.89140  Biso   1.000  C
  H23      1.0000 0.45250  0.46240  0.88860  Biso   1.000  H
  C32      1.0000 0.66830  0.43270  0.86260  Biso   1.000  C
  C33      1.0000 0.76670  0.33650  0.86610  Biso   1.000  C
  H24      1.0000 0.86590  0.34930  0.84550  Biso   1.000  H
  C34      1.0000 0.71480  0.22490  0.90010  Biso   1.000  C
  H25      1.0000 0.78280  0.16320  0.90260  Biso   1.000  H
  C35      1.0000 0.71980  0.55550  0.83150  Biso   1.000  C
  C36      1.0000 0.65040  0.63980  0.86400  Biso   1.000  C
  H26      1.0000 0.56600  0.62000  0.90220  Biso   1.000  H
  C37      1.0000 0.70220  0.75260  0.84150  Biso   1.000  C
  H27      1.0000 0.65420  0.80670  0.86680  Biso   1.000  H
  C38      1.0000 0.82290  0.78890  0.78290  Biso   1.000  C
  C39      1.0000 0.88780  0.70760  0.74700  Biso   1.000  C
  H28      1.0000 0.96790  0.72980  0.70550  Biso   1.000  H
  C40      1.0000 0.83880  0.59210  0.77010  Biso   1.000  C
  H29      1.0000 0.88640  0.53850  0.74410  Biso   1.000  H
  C41      1.0000 0.87660  0.91150  0.75940  Biso   1.000  C
  C42      1.0000 0.87330  0.00520  0.68080  Biso   1.000  C
  C43      1.0000 0.98080  0.06690  0.78170  Biso   1.000  C
  H30      1.0000 0.02890  0.11480  0.81060  Biso   1.000  H
  C44      1.0000 0.97840  0.88810  0.91950  Biso   1.000  C
  H31      1.0000 0.00590  0.80750  0.92180  Biso   1.000  H
  H32      1.0000 0.06450  0.92260  0.93940  Biso   1.000  H
  C45      1.0000 0.84840  0.88500  0.98740  Biso   1.000  C
  C46      1.0000 0.81340  0.01170  0.58980  Biso   1.000  C
  C47      1.0000 0.84610  0.10120  0.51500  Biso   1.000  C
  H33      1.0000 0.90470  0.16220  0.52150  Biso   1.000  H
  C48      1.0000 0.79580  0.10610  0.42810  Biso   1.000  C
  H34      1.0000 0.81940  0.17140  0.37860  Biso   1.000  H
  C49      1.0000 0.71340  0.01910  0.41280  Biso   1.000  C
  C50      1.0000 0.67550  0.93180  0.48890  Biso   1.000  C
  H35      1.0000 0.61630  0.87130  0.48180  Biso   1.000  H
  C51      1.0000 0.71970  0.92660  0.57730  Biso   1.000  C
  H36      1.0000 0.68620  0.86620  0.62770  Biso   1.000  H
  C52      1.0000 0.66520  0.02110  0.32060  Biso   1.000  C
  C53      1.0000 0.69120  0.11180  0.24270  Biso   1.000  C
  H37      1.0000 0.73870  0.17920  0.24690  Biso   1.000  H
  C54      1.0000 0.64740  0.10510  0.15660  Biso   1.000  C
  H38      1.0000 0.66790  0.16890  0.10530  Biso   1.000  H
  C55      1.0000 0.61200  0.91700  0.21150  Biso   1.000  C
  H39      1.0000 0.60710  0.84500  0.19810  Biso   1.000  H
  C56      1.0000 0.65200  0.91250  0.30020  Biso   1.000  C
  H40      1.0000 0.66880  0.84070  0.34480  Biso   1.000  H
  C57      1.0000 0.52000  0.93730  0.22100  Biso   1.000  C
  H41      1.0000 0.45460  0.88020  0.21390  Biso   1.000  H
  C58      1.0000 0.55000  0.93960  0.30910  Biso   1.000  C
  H42      1.0000 0.49960  0.89080  0.35980  Biso   1.000  H
  N5       1.0000 0.57570  0.19630  0.92980  Biso   1.000  N
  N6       1.0000 0.57950  0.01450  0.14370  Biso   1.000  N
  N7       1.0000 0.94660  0.95480  0.82360  Biso   1.000  N
  N8       1.0000 0.94010  0.10220  0.69650  Biso   1.000  N
  O3       1.0000 0.73310  0.95060  0.95520  Biso   1.000  O
  O4       1.0000 0.86750  0.82360  0.06660  Biso   1.000  O
  Cd1      1.0000 0.50000  0.00000  0.00000  Biso   1.000  Cd
