data_image0
_cell_length_a       15.9788
_cell_length_b       16.3669
_cell_length_c       29.5491
_cell_angle_alpha    78.976
_cell_angle_beta     80.628
_cell_angle_gamma    61.755

_symmetry_space_group_name_H-M    "P 1"
_symmetry_int_tables_number       1

loop_
  _symmetry_equiv_pos_as_xyz
  'x, y, z'

loop_
  _atom_site_label
  _atom_site_occupancy
  _atom_site_fract_x
  _atom_site_fract_y
  _atom_site_fract_z
  _atom_site_thermal_displace_type
  _atom_site_B_iso_or_equiv
  _atom_site_type_symbol
  Au1      1.0000 0.55911  0.07718  0.51892  Biso   1.000  Au
  Au2      1.0000 0.38174  0.12528  0.47616  Biso   1.000  Au
  Au3      1.0000 0.57046  0.00346  0.43321  Biso   1.000  Au
  Ag1      1.0000 0.39853  0.04276  0.39423  Biso   1.000  Ag
  P1       1.0000 0.62760  0.15140  0.54345  Biso   1.000  P
  P2       1.0000 0.26110  0.25610  0.44389  Biso   1.000  P
  P3       1.0000 0.63890  0.01250  0.36000  Biso   1.000  P
  O1       1.0000 0.49190  0.66460  0.26910  Biso   1.000  O
  O2       1.0000 0.47240  0.58860  0.34310  Biso   1.000  O
  H1       1.0000 0.48200  0.54510  0.32860  Biso   1.000  H
  O3       1.0000 0.89750  0.28830  0.36420  Biso   1.000  O
  H2       1.0000 0.83800  0.32100  0.36610  Biso   1.000  H
  O4       1.0000 0.89020  0.37460  0.41510  Biso   1.000  O
  O5       1.0000 0.46660  0.33880  0.19290  Biso   1.000  O
  H3       1.0000 0.48480  0.34220  0.16460  Biso   1.000  H
  O6       1.0000 0.61490  0.26820  0.20770  Biso   1.000  O
  C1       1.0000 0.80280  0.00810  0.51460  Biso   1.000  C
  H4       1.0000 0.76780  0.00040  0.49410  Biso   1.000  H
  C2       1.0000 0.75730  0.07970  0.54220  Biso   1.000  C
  C3       1.0000 0.80850  0.09090  0.57230  Biso   1.000  C
  H5       1.0000 0.77740  0.13980  0.59110  Biso   1.000  H
  C4       1.0000 0.90520  0.03060  0.57470  Biso   1.000  C
  H6       1.0000 0.94020  0.03820  0.59520  Biso   1.000  H
  C5       1.0000 0.95070  0.95900  0.54710  Biso   1.000  C
  H7       1.0000 0.01670  0.91780  0.54870  Biso   1.000  H
  C6       1.0000 0.89950  0.94780  0.51700  Biso   1.000  C
  H8       1.0000 0.93050  0.89890  0.49820  Biso   1.000  H
  C7       1.0000 0.59800  0.26220  0.51290  Biso   1.000  C
  C8       1.0000 0.50400  0.32250  0.50320  Biso   1.000  C
  H9       1.0000 0.45420  0.30800  0.51760  Biso   1.000  H
  C9       1.0000 0.48320  0.40400  0.47250  Biso   1.000  C
  H10      1.0000 0.41920  0.44520  0.46590  Biso   1.000  H
  C10      1.0000 0.55600  0.42530  0.45140  Biso   1.000  C
  H11      1.0000 0.54200  0.48100  0.43030  Biso   1.000  H
  C11      1.0000 0.65000  0.36500  0.46100  Biso   1.000  C
  H12      1.0000 0.69980  0.37950  0.44660  Biso   1.000  H
  C12      1.0000 0.67080  0.28350  0.49180  Biso   1.000  C
  H13      1.0000 0.73480  0.24230  0.49840  Biso   1.000  H
  C13      1.0000 0.40860  0.83440  0.39640  Biso   1.000  C
  N1       1.0000 0.41790  0.90380  0.37110  Biso   1.000  N
  C14      1.0000 0.43140  0.75100  0.38240  Biso   1.000  C
  H14      1.0000 0.42790  0.70040  0.40300  Biso   1.000  H
  C15      1.0000 0.46150  0.74540  0.33340  Biso   1.000  C
  C16      1.0000 0.46530  0.82150  0.30610  Biso   1.000  C
  H15      1.0000 0.48180  0.81990  0.27380  Biso   1.000  H
  C17      1.0000 0.44630  0.89800  0.32420  Biso   1.000  C
  H16      1.0000 0.45230  0.94880  0.30490  Biso   1.000  H
  C18      1.0000 0.47800  0.65850  0.31330  Biso   1.000  C
  C19      1.0000 0.18670  0.33880  0.48150  Biso   1.000  C
  C20      1.0000 0.17440  0.42970  0.47790  Biso   1.000  C
  H17      1.0000 0.20480  0.45340  0.45240  Biso   1.000  H
  C21      1.0000 0.11780  0.48580  0.51180  Biso   1.000  C
  H18      1.0000 0.10940  0.54790  0.50930  Biso   1.000  H
  C22      1.0000 0.07340  0.45100  0.54910  Biso   1.000  C
  H19      1.0000 0.03470  0.48940  0.57220  Biso   1.000  H
  C23      1.0000 0.08570  0.36020  0.55270  Biso   1.000  C
  H20      1.0000 0.05530  0.33640  0.57820  Biso   1.000  H
  C24      1.0000 0.14230  0.30410  0.51880  Biso   1.000  C
  H21      1.0000 0.15070  0.24200  0.52120  Biso   1.000  H
  C25      1.0000 0.37620  0.41860  0.32800  Biso   1.000  C
  H22      1.0000 0.39980  0.45200  0.30410  Biso   1.000  H
  C26      1.0000 0.28340  0.43180  0.32910  Biso   1.000  C
  H23      1.0000 0.24350  0.47430  0.30580  Biso   1.000  H
  C27      1.0000 0.24890  0.38280  0.36410  Biso   1.000  C
  H24      1.0000 0.18550  0.39190  0.36480  Biso   1.000  H
  C28      1.0000 0.30730  0.32070  0.39810  Biso   1.000  C
  C29      1.0000 0.40020  0.30750  0.39710  Biso   1.000  C
  H25      1.0000 0.44010  0.26500  0.42040  Biso   1.000  H
  C30      1.0000 0.43460  0.35640  0.36200  Biso   1.000  C
  H26      1.0000 0.49810  0.34740  0.36130  Biso   1.000  H
  N2       1.0000 0.23780  0.14800  0.39530  Biso   1.000  N
  C31      1.0000 0.18580  0.22800  0.41780  Biso   1.000  C
  C32      1.0000 0.08440  0.28040  0.41780  Biso   1.000  C
  H27      1.0000 0.05090  0.33080  0.43570  Biso   1.000  H
  C33      1.0000 0.03560  0.25890  0.39240  Biso   1.000  C
  C34      1.0000 0.08580  0.17730  0.36970  Biso   1.000  C
  H28      1.0000 0.05400  0.15790  0.35280  Biso   1.000  H
  C35      1.0000 0.18780  0.12530  0.37350  Biso   1.000  C
  H29      1.0000 0.22140  0.07010  0.35900  Biso   1.000  H
  C36      1.0000 0.93560  0.31300  0.39340  Biso   1.000  C
  C37      1.0000 0.73580  0.04260  0.35720  Biso   1.000  C
  C38      1.0000 0.71860  0.11940  0.37760  Biso   1.000  C
  H30      1.0000 0.65690  0.15600  0.39160  Biso   1.000  H
  C39      1.0000 0.79160  0.14280  0.37770  Biso   1.000  C
  H31      1.0000 0.77980  0.19540  0.39170  Biso   1.000  H
  C40      1.0000 0.88180  0.08940  0.35740  Biso   1.000  C
  H32      1.0000 0.93170  0.10540  0.35740  Biso   1.000  H
  C41      1.0000 0.89910  0.01250  0.33690  Biso   1.000  C
  H33      1.0000 0.96080  0.97590  0.32300  Biso   1.000  H
  C42      1.0000 0.82610  0.98910  0.33680  Biso   1.000  C
  H34      1.0000 0.83790  0.93660  0.32290  Biso   1.000  H
  C43      1.0000 0.68410  0.90760  0.33510  Biso   1.000  C
  C44      1.0000 0.72390  0.82410  0.36460  Biso   1.000  C
  H35      1.0000 0.72830  0.82500  0.39620  Biso   1.000  H
  C45      1.0000 0.75740  0.73920  0.34790  Biso   1.000  C
  H36      1.0000 0.78470  0.68220  0.36800  Biso   1.000  H
  C46      1.0000 0.75100  0.73790  0.30170  Biso   1.000  C
  H37      1.0000 0.77390  0.67990  0.29030  Biso   1.000  H
  C47      1.0000 0.71110  0.82130  0.27230  Biso   1.000  C
  H38      1.0000 0.70670  0.82040  0.24070  Biso   1.000  H
  C48      1.0000 0.67770  0.90620  0.28900  Biso   1.000  C
  H39      1.0000 0.65040  0.96320  0.26880  Biso   1.000  H
  N3       1.0000 0.46170  0.11730  0.32990  Biso   1.000  N
  C49      1.0000 0.55300  0.10680  0.31970  Biso   1.000  C
  C50      1.0000 0.57660  0.15760  0.28610  Biso   1.000  C
  H40      1.0000 0.63970  0.15080  0.28160  Biso   1.000  H
  C51      1.0000 0.50800  0.22220  0.25670  Biso   1.000  C
  C52      1.0000 0.41440  0.23620  0.26730  Biso   1.000  C
  H41      1.0000 0.36400  0.28410  0.25010  Biso   1.000  H
  C53      1.0000 0.39850  0.17950  0.30250  Biso   1.000  C
  H42      1.0000 0.33590  0.18500  0.30800  Biso   1.000  H
  C54      1.0000 0.53540  0.28130  0.21540  Biso   1.000  C
  Au4      1.0000 0.44089  0.92282  0.48108  Biso   1.000  Au
  Au5      1.0000 0.61826  0.87472  0.52384  Biso   1.000  Au
  Au6      1.0000 0.42954  0.99654  0.56679  Biso   1.000  Au
  Ag2      1.0000 0.60147  0.95724  0.60577  Biso   1.000  Ag
  P4       1.0000 0.37240  0.84860  0.45655  Biso   1.000  P
  P5       1.0000 0.73890  0.74390  0.55611  Biso   1.000  P
  P6       1.0000 0.36110  0.98750  0.64000  Biso   1.000  P
  O7       1.0000 0.50810  0.33540  0.73090  Biso   1.000  O
  O8       1.0000 0.52760  0.41140  0.65690  Biso   1.000  O
  H43      1.0000 0.51800  0.45490  0.67140  Biso   1.000  H
  O9       1.0000 0.10250  0.71170  0.63580  Biso   1.000  O
  H44      1.0000 0.16200  0.67900  0.63390  Biso   1.000  H
  O10      1.0000 0.10980  0.62540  0.58490  Biso   1.000  O
  O11      1.0000 0.53340  0.66120  0.80710  Biso   1.000  O
  H45      1.0000 0.51520  0.65780  0.83540  Biso   1.000  H
  O12      1.0000 0.38510  0.73180  0.79230  Biso   1.000  O
  C55      1.0000 0.19720  0.99190  0.48540  Biso   1.000  C
  H46      1.0000 0.23220  0.99960  0.50590  Biso   1.000  H
  C56      1.0000 0.24270  0.92030  0.45780  Biso   1.000  C
  C57      1.0000 0.19150  0.90910  0.42770  Biso   1.000  C
  H47      1.0000 0.22260  0.86020  0.40890  Biso   1.000  H
  C58      1.0000 0.09480  0.96940  0.42530  Biso   1.000  C
  H48      1.0000 0.05980  0.96180  0.40480  Biso   1.000  H
  C59      1.0000 0.04930  0.04100  0.45290  Biso   1.000  C
  H49      1.0000 0.98330  0.08220  0.45130  Biso   1.000  H
  C60      1.0000 0.10050  0.05220  0.48300  Biso   1.000  C
  H50      1.0000 0.06950  0.10110  0.50180  Biso   1.000  H
  C61      1.0000 0.40200  0.73780  0.48710  Biso   1.000  C
  C62      1.0000 0.49600  0.67750  0.49680  Biso   1.000  C
  H51      1.0000 0.54580  0.69200  0.48240  Biso   1.000  H
  C63      1.0000 0.51680  0.59600  0.52750  Biso   1.000  C
  H52      1.0000 0.58080  0.55480  0.53410  Biso   1.000  H
  C64      1.0000 0.44400  0.57470  0.54860  Biso   1.000  C
  H53      1.0000 0.45800  0.51900  0.56970  Biso   1.000  H
  C65      1.0000 0.35000  0.63500  0.53900  Biso   1.000  C
  H54      1.0000 0.30020  0.62050  0.55340  Biso   1.000  H
  C66      1.0000 0.32920  0.71650  0.50820  Biso   1.000  C
  H55      1.0000 0.26520  0.75770  0.50160  Biso   1.000  H
  C67      1.0000 0.59140  0.16560  0.60360  Biso   1.000  C
  N4       1.0000 0.58210  0.09620  0.62890  Biso   1.000  N
  C68      1.0000 0.56860  0.24900  0.61760  Biso   1.000  C
  H56      1.0000 0.57210  0.29960  0.59700  Biso   1.000  H
  C69      1.0000 0.53850  0.25460  0.66660  Biso   1.000  C
  C70      1.0000 0.53470  0.17850  0.69390  Biso   1.000  C
  H57      1.0000 0.51820  0.18010  0.72620  Biso   1.000  H
  C71      1.0000 0.55370  0.10200  0.67580  Biso   1.000  C
  H58      1.0000 0.54770  0.05120  0.69510  Biso   1.000  H
  C72      1.0000 0.52200  0.34150  0.68670  Biso   1.000  C
  C73      1.0000 0.81330  0.66120  0.51850  Biso   1.000  C
  C74      1.0000 0.82560  0.57030  0.52210  Biso   1.000  C
  H59      1.0000 0.79520  0.54660  0.54760  Biso   1.000  H
  C75      1.0000 0.88220  0.51420  0.48820  Biso   1.000  C
  H60      1.0000 0.89060  0.45210  0.49070  Biso   1.000  H
  C76      1.0000 0.92660  0.54900  0.45090  Biso   1.000  C
  H61      1.0000 0.96530  0.51060  0.42780  Biso   1.000  H
  C77      1.0000 0.91430  0.63980  0.44730  Biso   1.000  C
  H62      1.0000 0.94470  0.66360  0.42180  Biso   1.000  H
  C78      1.0000 0.85770  0.69590  0.48120  Biso   1.000  C
  H63      1.0000 0.84930  0.75800  0.47880  Biso   1.000  H
  C79      1.0000 0.62380  0.58140  0.67200  Biso   1.000  C
  H64      1.0000 0.60020  0.54800  0.69590  Biso   1.000  H
  C80      1.0000 0.71660  0.56820  0.67090  Biso   1.000  C
  H65      1.0000 0.75650  0.52570  0.69420  Biso   1.000  H
  C81      1.0000 0.75110  0.61720  0.63590  Biso   1.000  C
  H66      1.0000 0.81450  0.60810  0.63520  Biso   1.000  H
  C82      1.0000 0.69270  0.67930  0.60190  Biso   1.000  C
  C83      1.0000 0.59980  0.69250  0.60290  Biso   1.000  C
  H67      1.0000 0.55990  0.73500  0.57960  Biso   1.000  H
  C84      1.0000 0.56540  0.64360  0.63800  Biso   1.000  C
  H68      1.0000 0.50190  0.65260  0.63870  Biso   1.000  H
  N5       1.0000 0.76220  0.85200  0.60470  Biso   1.000  N
  C85      1.0000 0.81420  0.77200  0.58220  Biso   1.000  C
  C86      1.0000 0.91560  0.71960  0.58220  Biso   1.000  C
  H69      1.0000 0.94910  0.66920  0.56430  Biso   1.000  H
  C87      1.0000 0.96440  0.74110  0.60760  Biso   1.000  C
  C88      1.0000 0.91420  0.82270  0.63030  Biso   1.000  C
  H70      1.0000 0.94600  0.84210  0.64720  Biso   1.000  H
  C89      1.0000 0.81220  0.87470  0.62650  Biso   1.000  C
  H71      1.0000 0.77860  0.92990  0.64100  Biso   1.000  H
  C90      1.0000 0.06440  0.68700  0.60660  Biso   1.000  C
  C91      1.0000 0.26420  0.95740  0.64280  Biso   1.000  C
  C92      1.0000 0.28140  0.88060  0.62240  Biso   1.000  C
  H72      1.0000 0.34310  0.84400  0.60840  Biso   1.000  H
  C93      1.0000 0.20840  0.85720  0.62230  Biso   1.000  C
  H73      1.0000 0.22020  0.80460  0.60830  Biso   1.000  H
  C94      1.0000 0.11820  0.91060  0.64260  Biso   1.000  C
  H74      1.0000 0.06830  0.89460  0.64260  Biso   1.000  H
  C95      1.0000 0.10090  0.98750  0.66310  Biso   1.000  C
  H75      1.0000 0.03920  0.02410  0.67700  Biso   1.000  H
  C96      1.0000 0.17390  0.01090  0.66320  Biso   1.000  C
  H76      1.0000 0.16210  0.06340  0.67710  Biso   1.000  H
  C97      1.0000 0.31590  0.09240  0.66490  Biso   1.000  C
  C98      1.0000 0.27610  0.17590  0.63540  Biso   1.000  C
  H77      1.0000 0.27170  0.17500  0.60380  Biso   1.000  H
  C99      1.0000 0.24260  0.26080  0.65210  Biso   1.000  C
  H78      1.0000 0.21530  0.31780  0.63200  Biso   1.000  H
  C100     1.0000 0.24900  0.26210  0.69830  Biso   1.000  C
  H79      1.0000 0.22610  0.32010  0.70970  Biso   1.000  H
  C101     1.0000 0.28890  0.17870  0.72770  Biso   1.000  C
  H80      1.0000 0.29330  0.17960  0.75930  Biso   1.000  H
  C102     1.0000 0.32230  0.09380  0.71100  Biso   1.000  C
  H81      1.0000 0.34960  0.03680  0.73120  Biso   1.000  H
  N6       1.0000 0.53830  0.88270  0.67010  Biso   1.000  N
  C103     1.0000 0.44700  0.89320  0.68030  Biso   1.000  C
  C104     1.0000 0.42340  0.84240  0.71390  Biso   1.000  C
  H82      1.0000 0.36030  0.84920  0.71840  Biso   1.000  H
  C105     1.0000 0.49200  0.77780  0.74330  Biso   1.000  C
  C106     1.0000 0.58560  0.76380  0.73270  Biso   1.000  C
  H83      1.0000 0.63600  0.71590  0.74990  Biso   1.000  H
  C107     1.0000 0.60150  0.82050  0.69750  Biso   1.000  C
  H84      1.0000 0.66410  0.81500  0.69200  Biso   1.000  H
  C108     1.0000 0.46460  0.71870  0.78460  Biso   1.000  C
  C109     1.0000 0.50000  0.00000  0.50000  Biso   1.000  C
  Au7      1.0000 0.93371  0.97942  0.06612  Biso   1.000  Au
  Au8      1.0000 0.86413  0.08810  0.97523  Biso   1.000  Au
  Au9      1.0000 0.99590  0.88548  0.97977  Biso   1.000  Au
  Ag3      1.0000 0.80714  0.17887  0.05748  Biso   1.000  Ag
  P7       1.0000 0.85690  0.97540  0.13777  Biso   1.000  P
  P8       1.0000 0.71330  0.18380  0.95482  Biso   1.000  P
  P9       1.0000 0.98500  0.77130  0.95211  Biso   1.000  P
  O13      1.0000 0.51530  0.99030  0.21680  Biso   1.000  O
  O14      1.0000 0.40430  0.13110  0.18940  Biso   1.000  O
  H85      1.0000 0.36720  0.11750  0.20920  Biso   1.000  H
  O15      1.0000 0.56800  0.62880  0.92190  Biso   1.000  O
  O16      1.0000 0.53780  0.54790  0.87750  Biso   1.000  O
  H86      1.0000 0.51630  0.50880  0.88470  Biso   1.000  H
  O17      1.0000 0.82290  0.43580  0.22600  Biso   1.000  O
  O18      1.0000 0.96890  0.40360  0.19040  Biso   1.000  O
  H87      1.0000 0.97000  0.43380  0.21010  Biso   1.000  H
  C110     1.0000 0.87370  0.86220  0.16460  Biso   1.000  C
  C111     1.0000 0.84420  0.81110  0.14430  Biso   1.000  C
  H88      1.0000 0.81410  0.83700  0.11620  Biso   1.000  H
  C112     1.0000 0.85810  0.72680  0.16400  Biso   1.000  C
  H89      1.0000 0.83070  0.69570  0.15210  Biso   1.000  H
  C113     1.0000 0.91080  0.68340  0.20090  Biso   1.000  C
  H90      1.0000 0.92920  0.61900  0.21100  Biso   1.000  H
  C114     1.0000 0.93720  0.73000  0.22290  Biso   1.000  C
  H91      1.0000 0.96520  0.70230  0.25150  Biso   1.000  H
  C115     1.0000 0.92390  0.81610  0.20460  Biso   1.000  C
  H92      1.0000 0.94860  0.84680  0.21870  Biso   1.000  H
  C116     1.0000 0.88880  0.02950  0.17470  Biso   1.000  C
  C117     1.0000 0.97630  0.02530  0.16940  Biso   1.000  C
  H93      1.0000 0.02060  0.99400  0.14530  Biso   1.000  H
  C118     1.0000 0.00260  0.06390  0.19700  Biso   1.000  C
  H94      1.0000 0.06620  0.05540  0.19380  Biso   1.000  H
  C119     1.0000 0.93980  0.11420  0.22880  Biso   1.000  C
  H95      1.0000 0.95900  0.14280  0.24730  Biso   1.000  H
  C120     1.0000 0.84690  0.12590  0.23560  Biso   1.000  C
  H96      1.0000 0.80280  0.15970  0.25910  Biso   1.000  H
  C121     1.0000 0.82220  0.08540  0.20610  Biso   1.000  C
  H97      1.0000 0.75790  0.09640  0.20770  Biso   1.000  H
  N7       1.0000 0.70310  0.12920  0.10590  Biso   1.000  N
  C122     1.0000 0.72780  0.05020  0.13380  Biso   1.000  C
  C123     1.0000 0.66250  0.02400  0.16210  Biso   1.000  C
  H98      1.0000 0.68300  0.96650  0.18210  Biso   1.000  H
  C124     1.0000 0.56410  0.08760  0.15910  Biso   1.000  C
  C125     1.0000 0.54070  0.16610  0.13060  Biso   1.000  C
  H99      1.0000 0.47510  0.20880  0.12820  Biso   1.000  H
  C126     1.0000 0.60940  0.18830  0.10390  Biso   1.000  C
  H100     1.0000 0.58990  0.24600  0.08400  Biso   1.000  H
  C127     1.0000 0.49120  0.06300  0.19200  Biso   1.000  C
  C128     1.0000 0.69380  0.19440  0.89600  Biso   1.000  C
  C129     1.0000 0.61040  0.22260  0.87760  Biso   1.000  C
  H101     1.0000 0.55390  0.24600  0.89780  Biso   1.000  H
  C130     1.0000 0.59970  0.22070  0.83270  Biso   1.000  C
  H102     1.0000 0.53970  0.23510  0.82310  Biso   1.000  H
  C131     1.0000 0.68150  0.19640  0.80170  Biso   1.000  C
  H103     1.0000 0.67630  0.19850  0.76980  Biso   1.000  H
  C132     1.0000 0.76750  0.17010  0.81630  Biso   1.000  C
  H104     1.0000 0.82320  0.15100  0.79540  Biso   1.000  H
  C133     1.0000 0.77260  0.17150  0.86170  Biso   1.000  C
  H105     1.0000 0.83290  0.15630  0.87120  Biso   1.000  H
  C134     1.0000 0.62650  0.14970  0.98710  Biso   1.000  C
  C135     1.0000 0.65880  0.05260  0.00370  Biso   1.000  C
  H106     1.0000 0.72410  0.00850  0.00000  Biso   1.000  H
  C136     1.0000 0.59040  0.02580  0.02560  Biso   1.000  C
  H107     1.0000 0.60940  0.96110  0.03530  Biso   1.000  H
  C137     1.0000 0.49920  0.08640  0.03370  Biso   1.000  C
  H108     1.0000 0.45590  0.06460  0.05030  Biso   1.000  H
  C138     1.0000 0.46840  0.17570  0.01910  Biso   1.000  C
  H109     1.0000 0.40220  0.21680  0.02340  Biso   1.000  H
  C139     1.0000 0.52890  0.21130  0.99770  Biso   1.000  C
  H110     1.0000 0.50580  0.27700  0.98990  Biso   1.000  H
  N8       1.0000 0.69630  0.30730  0.00770  Biso   1.000  N
  C140     1.0000 0.67320  0.30380  0.96680  Biso   1.000  C
  C141     1.0000 0.63200  0.38250  0.93590  Biso   1.000  C
  H111     1.0000 0.62030  0.37810  0.90620  Biso   1.000  H
  C142     1.0000 0.60820  0.46680  0.94830  Biso   1.000  C
  C143     1.0000 0.63200  0.47380  0.98940  Biso   1.000  C
  H112     1.0000 0.62010  0.53230  0.99700  Biso   1.000  H
  C144     1.0000 0.67460  0.39060  0.01960  Biso   1.000  C
  H113     1.0000 0.68850  0.39340  0.04920  Biso   1.000  H
  C145     1.0000 0.56460  0.55810  0.91280  Biso   1.000  C
  C146     1.0000 0.99400  0.67390  0.99370  Biso   1.000  C
  C147     1.0000 0.08210  0.58940  0.99130  Biso   1.000  C
  H114     1.0000 0.13120  0.58390  0.96730  Biso   1.000  H
  C148     1.0000 0.09140  0.51570  0.02640  Biso   1.000  C
  H115     1.0000 0.15000  0.45970  0.02690  Biso   1.000  H
  C149     1.0000 0.02300  0.52020  0.05860  Biso   1.000  C
  H116     1.0000 0.03360  0.46880  0.08220  Biso   1.000  H
  C150     1.0000 0.93330  0.60130  0.05860  Biso   1.000  C
  H117     1.0000 0.88270  0.60180  0.08060  Biso   1.000  H
  C151     1.0000 0.91910  0.68010  0.02660  Biso   1.000  C
  H118     1.0000 0.86040  0.73580  0.02710  Biso   1.000  H
  C152     1.0000 0.82550  0.76740  0.92570  Biso   1.000  C
  H119     1.0000 0.85020  0.70460  0.94040  Biso   1.000  H
  C153     1.0000 0.87260  0.81990  0.92660  Biso   1.000  C
  C154     1.0000 0.83650  0.91180  0.90520  Biso   1.000  C
  H120     1.0000 0.86870  0.94770  0.90580  Biso   1.000  H
  C155     1.0000 0.75320  0.95130  0.88280  Biso   1.000  C
  H121     1.0000 0.72850  0.01420  0.86820  Biso   1.000  H
  C156     1.0000 0.70600  0.89890  0.88200  Biso   1.000  C
  H122     1.0000 0.64910  0.92590  0.86670  Biso   1.000  H
  C157     1.0000 0.74220  0.80690  0.90340  Biso   1.000  C
  H123     1.0000 0.71000  0.77110  0.90280  Biso   1.000  H
  C158     1.0000 0.92740  0.27420  0.09690  Biso   1.000  C
  N9       1.0000 0.84850  0.25840  0.10130  Biso   1.000  N
  C159     1.0000 0.93920  0.31890  0.12620  Biso   1.000  C
  H124     1.0000 0.99410  0.32890  0.12160  Biso   1.000  H
  C160     1.0000 0.87440  0.35090  0.16270  Biso   1.000  C
  C161     1.0000 0.79060  0.33850  0.16830  Biso   1.000  C
  H125     1.0000 0.74280  0.36320  0.19260  Biso   1.000  H
  C162     1.0000 0.78020  0.29050  0.13810  Biso   1.000  C
  H126     1.0000 0.72620  0.27900  0.14240  Biso   1.000  H
  C163     1.0000 0.88980  0.39960  0.19640  Biso   1.000  C
  Au10     1.0000 0.06629  0.02058  0.93388  Biso   1.000  Au
  Au11     1.0000 0.13587  0.91190  0.02477  Biso   1.000  Au
  Au12     1.0000 0.00410  0.11452  0.02023  Biso   1.000  Au
  Ag4      1.0000 0.19286  0.82113  0.94252  Biso   1.000  Ag
  P10      1.0000 0.14310  0.02460  0.86223  Biso   1.000  P
  P11      1.0000 0.28670  0.81620  0.04518  Biso   1.000  P
  P12      1.0000 0.01500  0.22870  0.04789  Biso   1.000  P
  O19      1.0000 0.48470  0.00970  0.78320  Biso   1.000  O
  O20      1.0000 0.59570  0.86890  0.81060  Biso   1.000  O
  H127     1.0000 0.63280  0.88250  0.79080  Biso   1.000  H
  O21      1.0000 0.43200  0.37120  0.07810  Biso   1.000  O
  O22      1.0000 0.46220  0.45210  0.12250  Biso   1.000  O
  H128     1.0000 0.48370  0.49120  0.11530  Biso   1.000  H
  O23      1.0000 0.17710  0.56420  0.77400  Biso   1.000  O
  O24      1.0000 0.03110  0.59640  0.80960  Biso   1.000  O
  H129     1.0000 0.03000  0.56620  0.78990  Biso   1.000  H
  C164     1.0000 0.12630  0.13780  0.83540  Biso   1.000  C
  C165     1.0000 0.15580  0.18890  0.85570  Biso   1.000  C
  H130     1.0000 0.18590  0.16300  0.88380  Biso   1.000  H
  C166     1.0000 0.14190  0.27320  0.83600  Biso   1.000  C
  H131     1.0000 0.16930  0.30430  0.84790  Biso   1.000  H
  C167     1.0000 0.08920  0.31660  0.79910  Biso   1.000  C
  H132     1.0000 0.07080  0.38100  0.78900  Biso   1.000  H
  C168     1.0000 0.06280  0.27000  0.77710  Biso   1.000  C
  H133     1.0000 0.03480  0.29770  0.74850  Biso   1.000  H
  C169     1.0000 0.07610  0.18390  0.79540  Biso   1.000  C
  H134     1.0000 0.05140  0.15320  0.78130  Biso   1.000  H
  C170     1.0000 0.11120  0.97050  0.82530  Biso   1.000  C
  C171     1.0000 0.02370  0.97470  0.83060  Biso   1.000  C
  H135     1.0000 0.97940  0.00600  0.85470  Biso   1.000  H
  C172     1.0000 0.99740  0.93610  0.80300  Biso   1.000  C
  H136     1.0000 0.93380  0.94460  0.80620  Biso   1.000  H
  C173     1.0000 0.06020  0.88580  0.77120  Biso   1.000  C
  H137     1.0000 0.04100  0.85720  0.75270  Biso   1.000  H
  C174     1.0000 0.15310  0.87410  0.76440  Biso   1.000  C
  H138     1.0000 0.19720  0.84030  0.74090  Biso   1.000  H
  C175     1.0000 0.17780  0.91460  0.79390  Biso   1.000  C
  H139     1.0000 0.24210  0.90360  0.79230  Biso   1.000  H
  N10      1.0000 0.29690  0.87080  0.89410  Biso   1.000  N
  C176     1.0000 0.27220  0.94980  0.86620  Biso   1.000  C
  C177     1.0000 0.33750  0.97600  0.83790  Biso   1.000  C
  H140     1.0000 0.31700  0.03350  0.81790  Biso   1.000  H
  C178     1.0000 0.43590  0.91240  0.84090  Biso   1.000  C
  C179     1.0000 0.45930  0.83390  0.86940  Biso   1.000  C
  H141     1.0000 0.52490  0.79120  0.87180  Biso   1.000  H
  C180     1.0000 0.39060  0.81170  0.89610  Biso   1.000  C
  H142     1.0000 0.41010  0.75400  0.91600  Biso   1.000  H
  C181     1.0000 0.50880  0.93700  0.80800  Biso   1.000  C
  C182     1.0000 0.30620  0.80560  0.10400  Biso   1.000  C
  C183     1.0000 0.38960  0.77740  0.12240  Biso   1.000  C
  H143     1.0000 0.44610  0.75400  0.10220  Biso   1.000  H
  C184     1.0000 0.40030  0.77930  0.16730  Biso   1.000  C
  H144     1.0000 0.46030  0.76490  0.17690  Biso   1.000  H
  C185     1.0000 0.31850  0.80360  0.19830  Biso   1.000  C
  H145     1.0000 0.32370  0.80150  0.23020  Biso   1.000  H
  C186     1.0000 0.23250  0.82990  0.18370  Biso   1.000  C
  H146     1.0000 0.17680  0.84900  0.20460  Biso   1.000  H
  C187     1.0000 0.22740  0.82850  0.13830  Biso   1.000  C
  H147     1.0000 0.16710  0.84370  0.12880  Biso   1.000  H
  C188     1.0000 0.37350  0.85030  0.01290  Biso   1.000  C
  C189     1.0000 0.34120  0.94740  0.99630  Biso   1.000  C
  H148     1.0000 0.27590  0.99150  0.00000  Biso   1.000  H
  C190     1.0000 0.40960  0.97420  0.97440  Biso   1.000  C
  H149     1.0000 0.39060  0.03890  0.96470  Biso   1.000  H
  C191     1.0000 0.50080  0.91360  0.96630  Biso   1.000  C
  H150     1.0000 0.54410  0.93540  0.94970  Biso   1.000  H
  C192     1.0000 0.53160  0.82430  0.98090  Biso   1.000  C
  H151     1.0000 0.59780  0.78320  0.97660  Biso   1.000  H
  C193     1.0000 0.47110  0.78870  0.00230  Biso   1.000  C
  H152     1.0000 0.49420  0.72300  0.01010  Biso   1.000  H
  N11      1.0000 0.30370  0.69270  0.99230  Biso   1.000  N
  C194     1.0000 0.32680  0.69620  0.03320  Biso   1.000  C
  C195     1.0000 0.36800  0.61750  0.06410  Biso   1.000  C
  H153     1.0000 0.37970  0.62190  0.09380  Biso   1.000  H
  C196     1.0000 0.39180  0.53320  0.05170  Biso   1.000  C
  C197     1.0000 0.36800  0.52620  0.01060  Biso   1.000  C
  H154     1.0000 0.37990  0.46770  0.00300  Biso   1.000  H
  C198     1.0000 0.32540  0.60940  0.98040  Biso   1.000  C
  H155     1.0000 0.31150  0.60660  0.95080  Biso   1.000  H
  C199     1.0000 0.43540  0.44190  0.08720  Biso   1.000  C
  C200     1.0000 0.00600  0.32610  0.00630  Biso   1.000  C
  C201     1.0000 0.91790  0.41060  0.00870  Biso   1.000  C
  H156     1.0000 0.86880  0.41610  0.03270  Biso   1.000  H
  C202     1.0000 0.90860  0.48430  0.97360  Biso   1.000  C
  H157     1.0000 0.85000  0.54030  0.97310  Biso   1.000  H
  C203     1.0000 0.97700  0.47980  0.94140  Biso   1.000  C
  H158     1.0000 0.96640  0.53120  0.91780  Biso   1.000  H
  C204     1.0000 0.06670  0.39870  0.94140  Biso   1.000  C
  H159     1.0000 0.11730  0.39820  0.91940  Biso   1.000  H
  C205     1.0000 0.08090  0.31990  0.97340  Biso   1.000  C
  H160     1.0000 0.13960  0.26420  0.97290  Biso   1.000  H
  C206     1.0000 0.17450  0.23260  0.07430  Biso   1.000  C
  H161     1.0000 0.14980  0.29540  0.05960  Biso   1.000  H
  C207     1.0000 0.12740  0.18010  0.07340  Biso   1.000  C
  C208     1.0000 0.16350  0.08820  0.09480  Biso   1.000  C
  H162     1.0000 0.13130  0.05230  0.09420  Biso   1.000  H
  C209     1.0000 0.24680  0.04870  0.11720  Biso   1.000  C
  H163     1.0000 0.27150  0.98580  0.13180  Biso   1.000  H
  C210     1.0000 0.29400  0.10110  0.11800  Biso   1.000  C
  H164     1.0000 0.35090  0.07410  0.13330  Biso   1.000  H
  C211     1.0000 0.25780  0.19310  0.09660  Biso   1.000  C
  H165     1.0000 0.29000  0.22890  0.09720  Biso   1.000  H
  C212     1.0000 0.07260  0.72580  0.90310  Biso   1.000  C
  N12      1.0000 0.15150  0.74160  0.89870  Biso   1.000  N
  C213     1.0000 0.06080  0.68110  0.87380  Biso   1.000  C
  H166     1.0000 0.00590  0.67110  0.87840  Biso   1.000  H
  C214     1.0000 0.12560  0.64910  0.83730  Biso   1.000  C
  C215     1.0000 0.20940  0.66150  0.83170  Biso   1.000  C
  H167     1.0000 0.25720  0.63680  0.80740  Biso   1.000  H
  C216     1.0000 0.21980  0.70950  0.86190  Biso   1.000  C
  H168     1.0000 0.27380  0.72100  0.85760  Biso   1.000  H
  C217     1.0000 0.11020  0.60040  0.80360  Biso   1.000  C
  C218     1.0000 0.00000  0.00000  0.00000  Biso   1.000  C
