data_image0
_cell_length_a       24.9004
_cell_length_b       7.9696
_cell_length_c       27.613
_cell_angle_alpha    90
_cell_angle_beta     90
_cell_angle_gamma    90

_symmetry_space_group_name_H-M    "P 1"
_symmetry_int_tables_number       1

loop_
  _symmetry_equiv_pos_as_xyz
  'x, y, z'

loop_
  _atom_site_label
  _atom_site_occupancy
  _atom_site_fract_x
  _atom_site_fract_y
  _atom_site_fract_z
  _atom_site_thermal_displace_type
  _atom_site_B_iso_or_equiv
  _atom_site_type_symbol
  O1       1.0000 0.47161  0.32350  0.54980  Biso   1.000  O
  O2       1.0000 0.54656  0.26340  0.59029  Biso   1.000  O
  C1       1.0000 0.46283  0.19000  0.62550  Biso   1.000  C
  C2       1.0000 0.40081  0.05720  0.70105  Biso   1.000  C
  N1       1.0000 0.39492  0.10460  0.83680  Biso   1.000  N
  H1       1.0000 0.40990  0.15230  0.86130  Biso   1.000  H
  C3       1.0000 0.36617  0.98850  0.74256  Biso   1.000  C
  H2       1.0000 0.33910  0.91370  0.72850  Biso   1.000  H
  C4       1.0000 0.49674  0.26380  0.58568  Biso   1.000  C
  C5       1.0000 0.39900  0.88720  0.77881  Biso   1.000  C
  C6       1.0000 0.41439  0.72220  0.76413  Biso   1.000  C
  C7       1.0000 0.44198  0.16940  0.71066  Biso   1.000  C
  H3       1.0000 0.44840  0.20310  0.74240  Biso   1.000  H
  C8       1.0000 0.42081  0.08160  0.61554  Biso   1.000  C
  H4       1.0000 0.41270  0.05430  0.58360  Biso   1.000  H
  C9       1.0000 0.47365  0.23220  0.67352  Biso   1.000  C
  H5       1.0000 0.50230  0.30280  0.68070  Biso   1.000  H
  N2       1.0000 0.29711  0.61270  0.89259  Biso   1.000  N
  C10      1.0000 0.33239  0.33490  0.83908  Biso   1.000  C
  C11      1.0000 0.32814  0.32860  0.88951  Biso   1.000  C
  H6       1.0000 0.33670  0.23100  0.90630  Biso   1.000  H
  N3       1.0000 0.25078  0.23830  0.72885  Biso   1.000  N
  C12      1.0000 0.31728  0.48250  0.81620  Biso   1.000  C
  H7       1.0000 0.31870  0.49160  0.78260  Biso   1.000  H
  C13      1.0000 0.39060  0.01310  0.65337  Biso   1.000  C
  H8       1.0000 0.36330  0.93700  0.64650  Biso   1.000  H
  C14      1.0000 0.30001  0.61560  0.84422  Biso   1.000  C
  H9       1.0000 0.28970  0.71360  0.82840  Biso   1.000  H
  C15      1.0000 0.31113  0.46960  0.91393  Biso   1.000  C
  H10      1.0000 0.30930  0.46440  0.94750  Biso   1.000  H
  N4       1.0000 0.42648  0.59310  0.74996  Biso   1.000  N
  C16      1.0000 0.28938  0.19290  0.74727  Biso   1.000  C
  C17      1.0000 0.41205  0.94830  0.82309  Biso   1.000  C
  C18      1.0000 0.35443  0.18800  0.81266  Biso   1.000  C
  C19      1.0000 0.33691  0.12780  0.76914  Biso   1.000  C
  C20      1.0000 0.43894  0.85190  0.86249  Biso   1.000  C
  C21      1.0000 0.48425  0.75520  0.85662  Biso   1.000  C
  H11      1.0000 0.50140  0.74960  0.82670  Biso   1.000  H
  C22      1.0000 0.41529  0.85640  0.90867  Biso   1.000  C
  H12      1.0000 0.38520  0.92260  0.91440  Biso   1.000  H
  C23      1.0000 0.50403  0.66630  0.89599  Biso   1.000  C
  H13      1.0000 0.53520  0.60360  0.89190  Biso   1.000  H
  C24      1.0000 0.43713  0.76220  0.94522  Biso   1.000  C
  H14      1.0000 0.42080  0.76550  0.97550  Biso   1.000  H
  N5       1.0000 0.48043  0.66630  0.93977  Biso   1.000  N
  O3       1.0000 0.52839  0.32350  0.95020  Biso   1.000  O
  O4       1.0000 0.45344  0.26340  0.90971  Biso   1.000  O
  C25      1.0000 0.53717  0.19000  0.87450  Biso   1.000  C
  C26      1.0000 0.59919  0.05720  0.79895  Biso   1.000  C
  N6       1.0000 0.60508  0.10460  0.66320  Biso   1.000  N
  H15      1.0000 0.59010  0.15230  0.63870  Biso   1.000  H
  C27      1.0000 0.63383  0.98850  0.75744  Biso   1.000  C
  H16      1.0000 0.66090  0.91370  0.77150  Biso   1.000  H
  C28      1.0000 0.50326  0.26380  0.91432  Biso   1.000  C
  C29      1.0000 0.60100  0.88720  0.72119  Biso   1.000  C
  C30      1.0000 0.58561  0.72220  0.73587  Biso   1.000  C
  C31      1.0000 0.55802  0.16940  0.78934  Biso   1.000  C
  H17      1.0000 0.55160  0.20310  0.75760  Biso   1.000  H
  C32      1.0000 0.57919  0.08160  0.88446  Biso   1.000  C
  H18      1.0000 0.58730  0.05430  0.91640  Biso   1.000  H
  C33      1.0000 0.52635  0.23220  0.82648  Biso   1.000  C
  H19      1.0000 0.49770  0.30280  0.81930  Biso   1.000  H
  N7       1.0000 0.70289  0.61270  0.60741  Biso   1.000  N
  C34      1.0000 0.66761  0.33490  0.66092  Biso   1.000  C
  C35      1.0000 0.67186  0.32860  0.61049  Biso   1.000  C
  H20      1.0000 0.66330  0.23100  0.59370  Biso   1.000  H
  N8       1.0000 0.74922  0.23830  0.77115  Biso   1.000  N
  C36      1.0000 0.68272  0.48250  0.68380  Biso   1.000  C
  H21      1.0000 0.68130  0.49160  0.71740  Biso   1.000  H
  C37      1.0000 0.60940  0.01310  0.84663  Biso   1.000  C
  H22      1.0000 0.63670  0.93700  0.85350  Biso   1.000  H
  C38      1.0000 0.69999  0.61560  0.65578  Biso   1.000  C
  H23      1.0000 0.71030  0.71360  0.67160  Biso   1.000  H
  C39      1.0000 0.68887  0.46960  0.58607  Biso   1.000  C
  H24      1.0000 0.69070  0.46440  0.55250  Biso   1.000  H
  N9       1.0000 0.57352  0.59310  0.75004  Biso   1.000  N
  C40      1.0000 0.71062  0.19290  0.75273  Biso   1.000  C
  C41      1.0000 0.58795  0.94830  0.67691  Biso   1.000  C
  C42      1.0000 0.64557  0.18800  0.68734  Biso   1.000  C
  C43      1.0000 0.66309  0.12780  0.73086  Biso   1.000  C
  C44      1.0000 0.56106  0.85190  0.63751  Biso   1.000  C
  C45      1.0000 0.51575  0.75520  0.64338  Biso   1.000  C
  H25      1.0000 0.49860  0.74960  0.67330  Biso   1.000  H
  C46      1.0000 0.58471  0.85640  0.59133  Biso   1.000  C
  H26      1.0000 0.61480  0.92260  0.58560  Biso   1.000  H
  C47      1.0000 0.49597  0.66630  0.60401  Biso   1.000  C
  H27      1.0000 0.46480  0.60360  0.60810  Biso   1.000  H
  C48      1.0000 0.56287  0.76220  0.55478  Biso   1.000  C
  H28      1.0000 0.57920  0.76550  0.52450  Biso   1.000  H
  N10      1.0000 0.51957  0.66630  0.56023  Biso   1.000  N
  O5       1.0000 0.52839  0.67650  0.45020  Biso   1.000  O
  O6       1.0000 0.45344  0.73660  0.40971  Biso   1.000  O
  C49      1.0000 0.53717  0.81000  0.37450  Biso   1.000  C
  C50      1.0000 0.59919  0.94280  0.29895  Biso   1.000  C
  N11      1.0000 0.60508  0.89540  0.16320  Biso   1.000  N
  H29      1.0000 0.59010  0.84770  0.13870  Biso   1.000  H
  C51      1.0000 0.63383  0.01150  0.25744  Biso   1.000  C
  H30      1.0000 0.66090  0.08630  0.27150  Biso   1.000  H
  C52      1.0000 0.50326  0.73620  0.41432  Biso   1.000  C
  C53      1.0000 0.60100  0.11280  0.22119  Biso   1.000  C
  C54      1.0000 0.58561  0.27780  0.23587  Biso   1.000  C
  C55      1.0000 0.55802  0.83060  0.28934  Biso   1.000  C
  H31      1.0000 0.55160  0.79690  0.25760  Biso   1.000  H
  C56      1.0000 0.57919  0.91840  0.38446  Biso   1.000  C
  H32      1.0000 0.58730  0.94570  0.41640  Biso   1.000  H
  C57      1.0000 0.52635  0.76780  0.32648  Biso   1.000  C
  H33      1.0000 0.49770  0.69720  0.31930  Biso   1.000  H
  N12      1.0000 0.70289  0.38730  0.10741  Biso   1.000  N
  C58      1.0000 0.66761  0.66510  0.16092  Biso   1.000  C
  C59      1.0000 0.67186  0.67140  0.11049  Biso   1.000  C
  H34      1.0000 0.66330  0.76900  0.09370  Biso   1.000  H
  N13      1.0000 0.74922  0.76170  0.27115  Biso   1.000  N
  C60      1.0000 0.68272  0.51750  0.18380  Biso   1.000  C
  H35      1.0000 0.68130  0.50840  0.21740  Biso   1.000  H
  C61      1.0000 0.60940  0.98690  0.34663  Biso   1.000  C
  H36      1.0000 0.63670  0.06300  0.35350  Biso   1.000  H
  C62      1.0000 0.69999  0.38440  0.15578  Biso   1.000  C
  H37      1.0000 0.71030  0.28640  0.17160  Biso   1.000  H
  C63      1.0000 0.68887  0.53040  0.08607  Biso   1.000  C
  H38      1.0000 0.69070  0.53560  0.05250  Biso   1.000  H
  N14      1.0000 0.57352  0.40690  0.25004  Biso   1.000  N
  C64      1.0000 0.71062  0.80710  0.25273  Biso   1.000  C
  C65      1.0000 0.58795  0.05170  0.17691  Biso   1.000  C
  C66      1.0000 0.64557  0.81200  0.18734  Biso   1.000  C
  C67      1.0000 0.66309  0.87220  0.23086  Biso   1.000  C
  C68      1.0000 0.56106  0.14810  0.13751  Biso   1.000  C
  C69      1.0000 0.51575  0.24480  0.14338  Biso   1.000  C
  H39      1.0000 0.49860  0.25040  0.17330  Biso   1.000  H
  C70      1.0000 0.58471  0.14360  0.09133  Biso   1.000  C
  H40      1.0000 0.61480  0.07740  0.08560  Biso   1.000  H
  C71      1.0000 0.49597  0.33370  0.10401  Biso   1.000  C
  H41      1.0000 0.46480  0.39640  0.10810  Biso   1.000  H
  C72      1.0000 0.56287  0.23780  0.05478  Biso   1.000  C
  H42      1.0000 0.57920  0.23450  0.02450  Biso   1.000  H
  N15      1.0000 0.51957  0.33370  0.06023  Biso   1.000  N
  O7       1.0000 0.47161  0.67650  0.04980  Biso   1.000  O
  O8       1.0000 0.54656  0.73660  0.09029  Biso   1.000  O
  C73      1.0000 0.46283  0.81000  0.12550  Biso   1.000  C
  C74      1.0000 0.40081  0.94280  0.20105  Biso   1.000  C
  N16      1.0000 0.39492  0.89540  0.33680  Biso   1.000  N
  H43      1.0000 0.40990  0.84770  0.36130  Biso   1.000  H
  C75      1.0000 0.36617  0.01150  0.24256  Biso   1.000  C
  H44      1.0000 0.33910  0.08630  0.22850  Biso   1.000  H
  C76      1.0000 0.49674  0.73620  0.08568  Biso   1.000  C
  C77      1.0000 0.39900  0.11280  0.27881  Biso   1.000  C
  C78      1.0000 0.41439  0.27780  0.26413  Biso   1.000  C
  C79      1.0000 0.44198  0.83060  0.21066  Biso   1.000  C
  H45      1.0000 0.44840  0.79690  0.24240  Biso   1.000  H
  C80      1.0000 0.42081  0.91840  0.11554  Biso   1.000  C
  H46      1.0000 0.41270  0.94570  0.08360  Biso   1.000  H
  C81      1.0000 0.47365  0.76780  0.17352  Biso   1.000  C
  H47      1.0000 0.50230  0.69720  0.18070  Biso   1.000  H
  N17      1.0000 0.29711  0.38730  0.39259  Biso   1.000  N
  C82      1.0000 0.33239  0.66510  0.33908  Biso   1.000  C
  C83      1.0000 0.32814  0.67140  0.38951  Biso   1.000  C
  H48      1.0000 0.33670  0.76900  0.40630  Biso   1.000  H
  N18      1.0000 0.25078  0.76170  0.22885  Biso   1.000  N
  C84      1.0000 0.31728  0.51750  0.31620  Biso   1.000  C
  H49      1.0000 0.31870  0.50840  0.28260  Biso   1.000  H
  C85      1.0000 0.39060  0.98690  0.15337  Biso   1.000  C
  H50      1.0000 0.36330  0.06300  0.14650  Biso   1.000  H
  C86      1.0000 0.30001  0.38440  0.34422  Biso   1.000  C
  H51      1.0000 0.28970  0.28640  0.32840  Biso   1.000  H
  C87      1.0000 0.31113  0.53040  0.41393  Biso   1.000  C
  H52      1.0000 0.30930  0.53560  0.44750  Biso   1.000  H
  N19      1.0000 0.42648  0.40690  0.24996  Biso   1.000  N
  C88      1.0000 0.28938  0.80710  0.24727  Biso   1.000  C
  C89      1.0000 0.41205  0.05170  0.32309  Biso   1.000  C
  C90      1.0000 0.35443  0.81200  0.31266  Biso   1.000  C
  C91      1.0000 0.33691  0.87220  0.26914  Biso   1.000  C
  C92      1.0000 0.43894  0.14810  0.36249  Biso   1.000  C
  C93      1.0000 0.48425  0.24480  0.35662  Biso   1.000  C
  H53      1.0000 0.50140  0.25040  0.32670  Biso   1.000  H
  C94      1.0000 0.41529  0.14360  0.40867  Biso   1.000  C
  H54      1.0000 0.38520  0.07740  0.41440  Biso   1.000  H
  C95      1.0000 0.50403  0.33370  0.39599  Biso   1.000  C
  H55      1.0000 0.53520  0.39640  0.39190  Biso   1.000  H
  C96      1.0000 0.43713  0.23780  0.44522  Biso   1.000  C
  H56      1.0000 0.42080  0.23450  0.47550  Biso   1.000  H
  N20      1.0000 0.48043  0.33370  0.43977  Biso   1.000  N
  Co1      1.0000 0.50000  0.50000  0.50000  Biso   1.000  Co
  Co2      1.0000 0.50000  0.50000  0.00000  Biso   1.000  Co
  O9       1.0000 0.02839  0.17650  0.04980  Biso   1.000  O
  O10      1.0000 0.95344  0.23660  0.09029  Biso   1.000  O
  C97      1.0000 0.03717  0.31000  0.12550  Biso   1.000  C
  C98      1.0000 0.09919  0.44280  0.20105  Biso   1.000  C
  N21      1.0000 0.10508  0.39540  0.33680  Biso   1.000  N
  H57      1.0000 0.09010  0.34770  0.36130  Biso   1.000  H
  C99      1.0000 0.13383  0.51150  0.24256  Biso   1.000  C
  H58      1.0000 0.16090  0.58630  0.22850  Biso   1.000  H
  C100     1.0000 0.00326  0.23620  0.08568  Biso   1.000  C
  C101     1.0000 0.10100  0.61280  0.27881  Biso   1.000  C
  C102     1.0000 0.08561  0.77780  0.26413  Biso   1.000  C
  C103     1.0000 0.05802  0.33060  0.21066  Biso   1.000  C
  H59      1.0000 0.05160  0.29690  0.24240  Biso   1.000  H
  C104     1.0000 0.07919  0.41840  0.11554  Biso   1.000  C
  H60      1.0000 0.08730  0.44570  0.08360  Biso   1.000  H
  C105     1.0000 0.02635  0.26780  0.17352  Biso   1.000  C
  H61      1.0000 0.99770  0.19720  0.18070  Biso   1.000  H
  N22      1.0000 0.20289  0.88730  0.39259  Biso   1.000  N
  C106     1.0000 0.16761  0.16510  0.33908  Biso   1.000  C
  C107     1.0000 0.17186  0.17140  0.38951  Biso   1.000  C
  H62      1.0000 0.16330  0.26900  0.40630  Biso   1.000  H
  N23      1.0000 0.24922  0.26170  0.22885  Biso   1.000  N
  C108     1.0000 0.18272  0.01750  0.31620  Biso   1.000  C
  H63      1.0000 0.18130  0.00840  0.28260  Biso   1.000  H
  C109     1.0000 0.10940  0.48690  0.15337  Biso   1.000  C
  H64      1.0000 0.13670  0.56300  0.14650  Biso   1.000  H
  C110     1.0000 0.19999  0.88440  0.34422  Biso   1.000  C
  H65      1.0000 0.21030  0.78640  0.32840  Biso   1.000  H
  C111     1.0000 0.18887  0.03040  0.41393  Biso   1.000  C
  H66      1.0000 0.19070  0.03560  0.44750  Biso   1.000  H
  N24      1.0000 0.07352  0.90690  0.24996  Biso   1.000  N
  C112     1.0000 0.21062  0.30710  0.24727  Biso   1.000  C
  C113     1.0000 0.08795  0.55170  0.32309  Biso   1.000  C
  C114     1.0000 0.14557  0.31200  0.31266  Biso   1.000  C
  C115     1.0000 0.16309  0.37220  0.26914  Biso   1.000  C
  C116     1.0000 0.06106  0.64810  0.36249  Biso   1.000  C
  C117     1.0000 0.01575  0.74480  0.35662  Biso   1.000  C
  H67      1.0000 0.99860  0.75040  0.32670  Biso   1.000  H
  C118     1.0000 0.08471  0.64360  0.40867  Biso   1.000  C
  H68      1.0000 0.11480  0.57740  0.41440  Biso   1.000  H
  C119     1.0000 0.99597  0.83370  0.39599  Biso   1.000  C
  H69      1.0000 0.96480  0.89640  0.39190  Biso   1.000  H
  C120     1.0000 0.06287  0.73780  0.44522  Biso   1.000  C
  H70      1.0000 0.07920  0.73450  0.47550  Biso   1.000  H
  N25      1.0000 0.01957  0.83370  0.43977  Biso   1.000  N
  O11      1.0000 0.97161  0.17650  0.45020  Biso   1.000  O
  O12      1.0000 0.04656  0.23660  0.40971  Biso   1.000  O
  C121     1.0000 0.96283  0.31000  0.37450  Biso   1.000  C
  C122     1.0000 0.90081  0.44280  0.29895  Biso   1.000  C
  N26      1.0000 0.89492  0.39540  0.16320  Biso   1.000  N
  H71      1.0000 0.90990  0.34770  0.13870  Biso   1.000  H
  C123     1.0000 0.86617  0.51150  0.25744  Biso   1.000  C
  H72      1.0000 0.83910  0.58630  0.27150  Biso   1.000  H
  C124     1.0000 0.99674  0.23620  0.41432  Biso   1.000  C
  C125     1.0000 0.89900  0.61280  0.22119  Biso   1.000  C
  C126     1.0000 0.91439  0.77780  0.23587  Biso   1.000  C
  C127     1.0000 0.94198  0.33060  0.28934  Biso   1.000  C
  H73      1.0000 0.94840  0.29690  0.25760  Biso   1.000  H
  C128     1.0000 0.92081  0.41840  0.38446  Biso   1.000  C
  H74      1.0000 0.91270  0.44570  0.41640  Biso   1.000  H
  C129     1.0000 0.97365  0.26780  0.32648  Biso   1.000  C
  H75      1.0000 0.00230  0.19720  0.31930  Biso   1.000  H
  N27      1.0000 0.79711  0.88730  0.10741  Biso   1.000  N
  C130     1.0000 0.83239  0.16510  0.16092  Biso   1.000  C
  C131     1.0000 0.82814  0.17140  0.11049  Biso   1.000  C
  H76      1.0000 0.83670  0.26900  0.09370  Biso   1.000  H
  N28      1.0000 0.75078  0.26170  0.27115  Biso   1.000  N
  C132     1.0000 0.81728  0.01750  0.18380  Biso   1.000  C
  H77      1.0000 0.81870  0.00840  0.21740  Biso   1.000  H
  C133     1.0000 0.89060  0.48690  0.34663  Biso   1.000  C
  H78      1.0000 0.86330  0.56300  0.35350  Biso   1.000  H
  C134     1.0000 0.80001  0.88440  0.15578  Biso   1.000  C
  H79      1.0000 0.78970  0.78640  0.17160  Biso   1.000  H
  C135     1.0000 0.81113  0.03040  0.08607  Biso   1.000  C
  H80      1.0000 0.80930  0.03560  0.05250  Biso   1.000  H
  N29      1.0000 0.92648  0.90690  0.25004  Biso   1.000  N
  C136     1.0000 0.78938  0.30710  0.25273  Biso   1.000  C
  C137     1.0000 0.91205  0.55170  0.17691  Biso   1.000  C
  C138     1.0000 0.85443  0.31200  0.18734  Biso   1.000  C
  C139     1.0000 0.83691  0.37220  0.23086  Biso   1.000  C
  C140     1.0000 0.93894  0.64810  0.13751  Biso   1.000  C
  C141     1.0000 0.98425  0.74480  0.14338  Biso   1.000  C
  H81      1.0000 0.00140  0.75040  0.17330  Biso   1.000  H
  C142     1.0000 0.91529  0.64360  0.09133  Biso   1.000  C
  H82      1.0000 0.88520  0.57740  0.08560  Biso   1.000  H
  C143     1.0000 0.00403  0.83370  0.10401  Biso   1.000  C
  H83      1.0000 0.03520  0.89640  0.10810  Biso   1.000  H
  C144     1.0000 0.93713  0.73780  0.05478  Biso   1.000  C
  H84      1.0000 0.92080  0.73450  0.02450  Biso   1.000  H
  N30      1.0000 0.98043  0.83370  0.06023  Biso   1.000  N
  O13      1.0000 0.97161  0.82350  0.95020  Biso   1.000  O
  O14      1.0000 0.04656  0.76340  0.90971  Biso   1.000  O
  C145     1.0000 0.96283  0.69000  0.87450  Biso   1.000  C
  C146     1.0000 0.90081  0.55720  0.79895  Biso   1.000  C
  N31      1.0000 0.89492  0.60460  0.66320  Biso   1.000  N
  H85      1.0000 0.90990  0.65230  0.63870  Biso   1.000  H
  C147     1.0000 0.86617  0.48850  0.75744  Biso   1.000  C
  H86      1.0000 0.83910  0.41370  0.77150  Biso   1.000  H
  C148     1.0000 0.99674  0.76380  0.91432  Biso   1.000  C
  C149     1.0000 0.89900  0.38720  0.72119  Biso   1.000  C
  C150     1.0000 0.91439  0.22220  0.73587  Biso   1.000  C
  C151     1.0000 0.94198  0.66940  0.78934  Biso   1.000  C
  H87      1.0000 0.94840  0.70310  0.75760  Biso   1.000  H
  C152     1.0000 0.92081  0.58160  0.88446  Biso   1.000  C
  H88      1.0000 0.91270  0.55430  0.91640  Biso   1.000  H
  C153     1.0000 0.97365  0.73220  0.82648  Biso   1.000  C
  H89      1.0000 0.00230  0.80280  0.81930  Biso   1.000  H
  N32      1.0000 0.79711  0.11270  0.60741  Biso   1.000  N
  C154     1.0000 0.83239  0.83490  0.66092  Biso   1.000  C
  C155     1.0000 0.82814  0.82860  0.61049  Biso   1.000  C
  H90      1.0000 0.83670  0.73100  0.59370  Biso   1.000  H
  N33      1.0000 0.75078  0.73830  0.77115  Biso   1.000  N
  C156     1.0000 0.81728  0.98250  0.68380  Biso   1.000  C
  H91      1.0000 0.81870  0.99160  0.71740  Biso   1.000  H
  C157     1.0000 0.89060  0.51310  0.84663  Biso   1.000  C
  H92      1.0000 0.86330  0.43700  0.85350  Biso   1.000  H
  C158     1.0000 0.80001  0.11560  0.65578  Biso   1.000  C
  H93      1.0000 0.78970  0.21360  0.67160  Biso   1.000  H
  C159     1.0000 0.81113  0.96960  0.58607  Biso   1.000  C
  H94      1.0000 0.80930  0.96440  0.55250  Biso   1.000  H
  N34      1.0000 0.92648  0.09310  0.75004  Biso   1.000  N
  C160     1.0000 0.78938  0.69290  0.75273  Biso   1.000  C
  C161     1.0000 0.91205  0.44830  0.67691  Biso   1.000  C
  C162     1.0000 0.85443  0.68800  0.68734  Biso   1.000  C
  C163     1.0000 0.83691  0.62780  0.73086  Biso   1.000  C
  C164     1.0000 0.93894  0.35190  0.63751  Biso   1.000  C
  C165     1.0000 0.98425  0.25520  0.64338  Biso   1.000  C
  H95      1.0000 0.00140  0.24960  0.67330  Biso   1.000  H
  C166     1.0000 0.91529  0.35640  0.59133  Biso   1.000  C
  H96      1.0000 0.88520  0.42260  0.58560  Biso   1.000  H
  C167     1.0000 0.00403  0.16630  0.60401  Biso   1.000  C
  H97      1.0000 0.03520  0.10360  0.60810  Biso   1.000  H
  C168     1.0000 0.93713  0.26220  0.55478  Biso   1.000  C
  H98      1.0000 0.92080  0.26550  0.52450  Biso   1.000  H
  N35      1.0000 0.98043  0.16630  0.56023  Biso   1.000  N
  O15      1.0000 0.02839  0.82350  0.54980  Biso   1.000  O
  O16      1.0000 0.95344  0.76340  0.59029  Biso   1.000  O
  C169     1.0000 0.03717  0.69000  0.62550  Biso   1.000  C
  C170     1.0000 0.09919  0.55720  0.70105  Biso   1.000  C
  N36      1.0000 0.10508  0.60460  0.83680  Biso   1.000  N
  H99      1.0000 0.09010  0.65230  0.86130  Biso   1.000  H
  C171     1.0000 0.13383  0.48850  0.74256  Biso   1.000  C
  H100     1.0000 0.16090  0.41370  0.72850  Biso   1.000  H
  C172     1.0000 0.00326  0.76380  0.58568  Biso   1.000  C
  C173     1.0000 0.10100  0.38720  0.77881  Biso   1.000  C
  C174     1.0000 0.08561  0.22220  0.76413  Biso   1.000  C
  C175     1.0000 0.05802  0.66940  0.71066  Biso   1.000  C
  H101     1.0000 0.05160  0.70310  0.74240  Biso   1.000  H
  C176     1.0000 0.07919  0.58160  0.61554  Biso   1.000  C
  H102     1.0000 0.08730  0.55430  0.58360  Biso   1.000  H
  C177     1.0000 0.02635  0.73220  0.67352  Biso   1.000  C
  H103     1.0000 0.99770  0.80280  0.68070  Biso   1.000  H
  N37      1.0000 0.20289  0.11270  0.89259  Biso   1.000  N
  C178     1.0000 0.16761  0.83490  0.83908  Biso   1.000  C
  C179     1.0000 0.17186  0.82860  0.88951  Biso   1.000  C
  H104     1.0000 0.16330  0.73100  0.90630  Biso   1.000  H
  N38      1.0000 0.24922  0.73830  0.72885  Biso   1.000  N
  C180     1.0000 0.18272  0.98250  0.81620  Biso   1.000  C
  H105     1.0000 0.18130  0.99160  0.78260  Biso   1.000  H
  C181     1.0000 0.10940  0.51310  0.65337  Biso   1.000  C
  H106     1.0000 0.13670  0.43700  0.64650  Biso   1.000  H
  C182     1.0000 0.19999  0.11560  0.84422  Biso   1.000  C
  H107     1.0000 0.21030  0.21360  0.82840  Biso   1.000  H
  C183     1.0000 0.18887  0.96960  0.91393  Biso   1.000  C
  H108     1.0000 0.19070  0.96440  0.94750  Biso   1.000  H
  N39      1.0000 0.07352  0.09310  0.74996  Biso   1.000  N
  C184     1.0000 0.21062  0.69290  0.74727  Biso   1.000  C
  C185     1.0000 0.08795  0.44830  0.82309  Biso   1.000  C
  C186     1.0000 0.14557  0.68800  0.81266  Biso   1.000  C
  C187     1.0000 0.16309  0.62780  0.76914  Biso   1.000  C
  C188     1.0000 0.06106  0.35190  0.86249  Biso   1.000  C
  C189     1.0000 0.01575  0.25520  0.85662  Biso   1.000  C
  H109     1.0000 0.99860  0.24960  0.82670  Biso   1.000  H
  C190     1.0000 0.08471  0.35640  0.90867  Biso   1.000  C
  H110     1.0000 0.11480  0.42260  0.91440  Biso   1.000  H
  C191     1.0000 0.99597  0.16630  0.89599  Biso   1.000  C
  H111     1.0000 0.96480  0.10360  0.89190  Biso   1.000  H
  C192     1.0000 0.06287  0.26220  0.94522  Biso   1.000  C
  H112     1.0000 0.07920  0.26550  0.97550  Biso   1.000  H
  N40      1.0000 0.01957  0.16630  0.93977  Biso   1.000  N
  Co3      1.0000 0.00000  0.00000  0.00000  Biso   1.000  Co
  Co4      1.0000 0.00000  0.00000  0.50000  Biso   1.000  Co
