data_image0
_cell_length_a       19.9132
_cell_length_b       19.9132
_cell_length_c       37.7137
_cell_angle_alpha    78.0337
_cell_angle_beta     101.835
_cell_angle_gamma    89.2932

_symmetry_space_group_name_H-M    "P 1"
_symmetry_int_tables_number       1

loop_
  _symmetry_equiv_pos_as_xyz
  'x, y, z'

loop_
  _atom_site_label
  _atom_site_occupancy
  _atom_site_fract_x
  _atom_site_fract_y
  _atom_site_fract_z
  _atom_site_thermal_displace_type
  _atom_site_B_iso_or_equiv
  _atom_site_type_symbol
  O1       1.0000 0.46295  0.08744  0.27448  Biso   1.000  O
  O2       1.0000 0.47245  0.97427  0.29398  Biso   1.000  O
  C1       1.0000 0.43903  0.03406  0.30041  Biso   1.000  C
  O3       1.0000 0.44253  0.07258  0.20041  Biso   1.000  O
  O4       1.0000 0.45211  0.95834  0.22009  Biso   1.000  O
  C2       1.0000 0.41357  0.01207  0.19463  Biso   1.000  C
  Cu1      1.0000 0.52335  0.09037  0.23742  Biso   1.000  Cu
  Cu2      1.0000 0.53450  0.95732  0.26033  Biso   1.000  Cu
  O5       1.0000 0.58541  0.07342  0.20378  Biso   1.000  O
  O6       1.0000 0.59490  0.96025  0.22328  Biso   1.000  O
  O7       1.0000 0.60573  0.08936  0.27767  Biso   1.000  O
  O8       1.0000 0.61531  0.97511  0.29734  Biso   1.000  O
  C3       1.0000 0.61884  0.01363  0.19735  Biso   1.000  C
  C4       1.0000 0.64428  0.03563  0.30313  Biso   1.000  C
  O9       1.0000 0.07767  0.43749  0.79729  Biso   1.000  O
  O10      1.0000 0.96345  0.44702  0.77783  Biso   1.000  O
  C5       1.0000 0.01722  0.40848  0.80321  Biso   1.000  C
  O11      1.0000 0.07847  0.58040  0.79386  Biso   1.000  O
  O12      1.0000 0.96534  0.58984  0.77459  Biso   1.000  O
  C6       1.0000 0.01873  0.61376  0.80043  Biso   1.000  C
  Cu3      1.0000 0.09532  0.51844  0.76019  Biso   1.000  Cu
  Cu4      1.0000 0.96231  0.52954  0.73753  Biso   1.000  Cu
  O13      1.0000 0.09418  0.60096  0.71989  Biso   1.000  O
  O14      1.0000 0.97996  0.61049  0.70043  Biso   1.000  O
  O15      1.0000 0.09230  0.45817  0.72312  Biso   1.000  O
  O16      1.0000 0.97917  0.46760  0.70385  Biso   1.000  O
  C7       1.0000 0.04041  0.63949  0.69451  Biso   1.000  C
  C8       1.0000 0.03890  0.43426  0.69728  Biso   1.000  C
  C9       1.0000 0.04594  0.37079  0.66133  Biso   1.000  C
  C10      1.0000 0.05922  0.25099  0.59368  Biso   1.000  C
  C11      1.0000 0.99988  0.29011  0.60388  Biso   1.000  C
  H1       1.0000 0.95004  0.28169  0.58817  Biso   1.000  H
  C12      1.0000 0.99432  0.34054  0.63237  Biso   1.000  C
  H2       1.0000 0.94170  0.35712  0.63079  Biso   1.000  H
  C13      1.0000 0.10525  0.33164  0.65110  Biso   1.000  C
  H3       1.0000 0.15510  0.34001  0.66683  Biso   1.000  H
  C14      1.0000 0.11086  0.28122  0.62263  Biso   1.000  C
  H4       1.0000 0.16348  0.26462  0.62422  Biso   1.000  H
  C15      1.0000 0.99377  0.75926  0.63133  Biso   1.000  C
  H5       1.0000 0.94189  0.74416  0.63161  Biso   1.000  H
  C16      1.0000 0.00001  0.82313  0.60185  Biso   1.000  C
  H6       1.0000 0.95189  0.84635  0.58444  Biso   1.000  H
  C17      1.0000 0.04788  0.71516  0.65945  Biso   1.000  C
  C18      1.0000 0.06185  0.85779  0.59364  Biso   1.000  C
  C19      1.0000 0.11600  0.81369  0.62172  Biso   1.000  C
  H7       1.0000 0.16788  0.82876  0.62144  Biso   1.000  H
  C20      1.0000 0.10973  0.74981  0.65119  Biso   1.000  C
  H8       1.0000 0.15787  0.72656  0.66858  Biso   1.000  H
  C21      1.0000 0.71990  0.04321  0.33813  Biso   1.000  C
  C22      1.0000 0.75435  0.10514  0.34638  Biso   1.000  C
  H9       1.0000 0.73101  0.15330  0.32900  Biso   1.000  H
  C23      1.0000 0.81815  0.11148  0.37581  Biso   1.000  C
  H10      1.0000 0.83304  0.16342  0.37607  Biso   1.000  H
  C24      1.0000 0.86242  0.05735  0.40387  Biso   1.000  C
  C25      1.0000 0.82801  0.99543  0.39563  Biso   1.000  C
  H11      1.0000 0.85141  0.94728  0.41298  Biso   1.000  H
  C26      1.0000 0.76422  0.98912  0.36619  Biso   1.000  C
  H12      1.0000 0.74938  0.93717  0.36591  Biso   1.000  H
  C27      1.0000 0.37546  0.04118  0.33631  Biso   1.000  C
  C28      1.0000 0.34581  0.98964  0.36565  Biso   1.000  C
  H13      1.0000 0.36301  0.93705  0.36760  Biso   1.000  H
  C29      1.0000 0.29531  0.99528  0.39411  Biso   1.000  C
  H14      1.0000 0.28746  0.94550  0.41020  Biso   1.000  H
  C30      1.0000 0.25553  0.05464  0.40387  Biso   1.000  C
  C31      1.0000 0.28513  0.10619  0.37453  Biso   1.000  C
  H15      1.0000 0.26786  0.15877  0.37254  Biso   1.000  H
  C32      1.0000 0.33564  0.10051  0.34609  Biso   1.000  C
  H16      1.0000 0.34343  0.15027  0.32996  Biso   1.000  H
  C33      1.0000 0.68242  0.00651  0.16146  Biso   1.000  C
  C34      1.0000 0.80234  0.99311  0.09389  Biso   1.000  C
  C35      1.0000 0.77277  0.94153  0.12324  Biso   1.000  C
  H17      1.0000 0.79009  0.88896  0.12524  Biso   1.000  H
  C36      1.0000 0.72226  0.94720  0.15168  Biso   1.000  C
  H18      1.0000 0.71451  0.89742  0.16781  Biso   1.000  H
  C37      1.0000 0.71207  0.05807  0.13213  Biso   1.000  C
  H19      1.0000 0.69487  0.11065  0.13019  Biso   1.000  H
  C38      1.0000 0.76256  0.05245  0.10366  Biso   1.000  C
  H20      1.0000 0.77042  0.10223  0.08759  Biso   1.000  H
  C39      1.0000 0.30350  0.94258  0.15133  Biso   1.000  C
  H21      1.0000 0.32686  0.89440  0.16867  Biso   1.000  H
  C40      1.0000 0.23970  0.93628  0.12189  Biso   1.000  C
  H22      1.0000 0.22482  0.88434  0.12160  Biso   1.000  H
  C41      1.0000 0.33794  0.00450  0.15962  Biso   1.000  C
  C42      1.0000 0.19541  0.99043  0.09387  Biso   1.000  C
  C43      1.0000 0.22981  0.05234  0.10214  Biso   1.000  C
  H23      1.0000 0.20639  0.10050  0.08482  Biso   1.000  H
  C44      1.0000 0.29362  0.05862  0.13158  Biso   1.000  C
  H24      1.0000 0.30844  0.11056  0.13189  Biso   1.000  H
  C45      1.0000 0.01171  0.67725  0.83636  Biso   1.000  C
  C46      1.0000 0.95241  0.71640  0.84659  Biso   1.000  C
  H25      1.0000 0.90256  0.70805  0.83086  Biso   1.000  H
  C47      1.0000 0.94681  0.76682  0.87506  Biso   1.000  C
  H26      1.0000 0.89420  0.78344  0.87348  Biso   1.000  H
  C48      1.0000 0.99847  0.79703  0.90401  Biso   1.000  C
  C49      1.0000 0.05780  0.75794  0.89379  Biso   1.000  C
  H27      1.0000 0.10765  0.76639  0.90948  Biso   1.000  H
  C50      1.0000 0.06335  0.70752  0.86531  Biso   1.000  C
  H28      1.0000 0.11597  0.69097  0.86686  Biso   1.000  H
  C51      1.0000 0.00977  0.33280  0.83828  Biso   1.000  C
  C52      1.0000 0.06390  0.28872  0.86641  Biso   1.000  C
  H29      1.0000 0.11577  0.30384  0.86615  Biso   1.000  H
  C53      1.0000 0.05768  0.22485  0.89589  Biso   1.000  C
  H30      1.0000 0.10581  0.20165  0.91332  Biso   1.000  H
  C54      1.0000 0.99586  0.19014  0.90411  Biso   1.000  C
  C55      1.0000 0.94170  0.23421  0.87602  Biso   1.000  C
  H31      1.0000 0.88983  0.21909  0.87629  Biso   1.000  H
  C56      1.0000 0.94794  0.29810  0.84654  Biso   1.000  C
  H32      1.0000 0.89979  0.32130  0.82915  Biso   1.000  H
