data_image0
_cell_length_a       27.509
_cell_length_b       7.6304
_cell_length_c       16.2294
_cell_angle_alpha    90
_cell_angle_beta     119.061
_cell_angle_gamma    90

_symmetry_space_group_name_H-M    "P 1"
_symmetry_int_tables_number       1

loop_
  _symmetry_equiv_pos_as_xyz
  'x, y, z'

loop_
  _atom_site_label
  _atom_site_occupancy
  _atom_site_fract_x
  _atom_site_fract_y
  _atom_site_fract_z
  _atom_site_thermal_displace_type
  _atom_site_B_iso_or_equiv
  _atom_site_type_symbol
  Zn1      1.0000 0.16446  0.23195  0.15999  Biso   1.000  Zn
  N1       1.0000 0.10038  0.08330  0.07337  Biso   1.000  N
  C1       1.0000 0.07597  0.08170  0.98088  Biso   1.000  C
  H1       1.0000 0.07920  0.17060  0.94460  Biso   1.000  H
  N2       1.0000 0.04619  0.93690  0.94581  Biso   1.000  N
  H2       1.0000 0.02700  0.91110  0.88700  Biso   1.000  H
  C2       1.0000 0.05110  0.83510  0.01956  Biso   1.000  C
  C3       1.0000 0.08486  0.92900  0.09823  Biso   1.000  C
  H3       1.0000 0.09580  0.89410  0.15970  Biso   1.000  H
  C4       1.0000 0.02483  0.66440  0.00826  Biso   1.000  C
  C5       1.0000 0.98870  0.59550  0.92110  Biso   1.000  C
  H4       1.0000 0.98070  0.65880  0.86700  Biso   1.000  H
  C6       1.0000 0.03590  0.56660  0.08720  Biso   1.000  C
  H5       1.0000 0.06020  0.61030  0.14680  Biso   1.000  H
  O1       1.0000 0.16701  0.21840  0.28147  Biso   1.000  O
  C7       1.0000 0.18295  0.08660  0.33605  Biso   1.000  C
  O2       1.0000 0.19325  0.94070  0.31560  Biso   1.000  O
  C8       1.0000 0.18837  0.11840  0.43220  Biso   1.000  C
  C9       1.0000 0.17456  0.27980  0.45341  Biso   1.000  C
  H6       1.0000 0.16080  0.36730  0.40780  Biso   1.000  H
  C10      1.0000 0.18111  0.31220  0.54278  Biso   1.000  C
  C11      1.0000 0.20122  0.17950  0.61008  Biso   1.000  C
  H7       1.0000 0.20500  0.19920  0.66950  Biso   1.000  H
  C12      1.0000 0.21562  0.01830  0.58912  Biso   1.000  C
  C13      1.0000 0.20902  0.98690  0.50033  Biso   1.000  C
  H8       1.0000 0.21840  0.87820  0.48610  Biso   1.000  H
  O3       1.0000 0.17634  0.51470  0.65040  Biso   1.000  O
  C14      1.0000 0.16823  0.48940  0.56633  Biso   1.000  C
  O4       1.0000 0.15155  0.60780  0.50678  Biso   1.000  O
  N3       1.0000 0.23402  0.88220  0.65933  Biso   1.000  N
  H9       1.0000 0.24110  0.77920  0.64640  Biso   1.000  H
  H10      1.0000 0.23790  0.90390  0.71420  Biso   1.000  H
  Zn2      1.0000 0.83554  0.23195  0.34001  Biso   1.000  Zn
  N4       1.0000 0.89962  0.08330  0.42663  Biso   1.000  N
  C15      1.0000 0.92403  0.08170  0.51912  Biso   1.000  C
  H11      1.0000 0.92080  0.17060  0.55540  Biso   1.000  H
  N5       1.0000 0.95381  0.93690  0.55419  Biso   1.000  N
  H12      1.0000 0.97300  0.91110  0.61300  Biso   1.000  H
  C16      1.0000 0.94890  0.83510  0.48044  Biso   1.000  C
  C17      1.0000 0.91514  0.92900  0.40177  Biso   1.000  C
  H13      1.0000 0.90420  0.89410  0.34030  Biso   1.000  H
  C18      1.0000 0.97517  0.66440  0.49174  Biso   1.000  C
  C19      1.0000 0.01130  0.59550  0.57890  Biso   1.000  C
  H14      1.0000 0.01930  0.65880  0.63300  Biso   1.000  H
  C20      1.0000 0.96410  0.56660  0.41280  Biso   1.000  C
  H15      1.0000 0.93980  0.61030  0.35320  Biso   1.000  H
  O5       1.0000 0.83299  0.21840  0.21853  Biso   1.000  O
  C21      1.0000 0.81705  0.08660  0.16395  Biso   1.000  C
  O6       1.0000 0.80675  0.94070  0.18440  Biso   1.000  O
  C22      1.0000 0.81163  0.11840  0.06780  Biso   1.000  C
  C23      1.0000 0.82544  0.27980  0.04659  Biso   1.000  C
  H16      1.0000 0.83920  0.36730  0.09220  Biso   1.000  H
  C24      1.0000 0.81889  0.31220  0.95722  Biso   1.000  C
  C25      1.0000 0.79878  0.17950  0.88992  Biso   1.000  C
  H17      1.0000 0.79500  0.19920  0.83050  Biso   1.000  H
  C26      1.0000 0.78438  0.01830  0.91088  Biso   1.000  C
  C27      1.0000 0.79098  0.98690  0.99967  Biso   1.000  C
  H18      1.0000 0.78160  0.87820  0.01390  Biso   1.000  H
  O7       1.0000 0.82366  0.51470  0.84960  Biso   1.000  O
  C28      1.0000 0.83177  0.48940  0.93367  Biso   1.000  C
  O8       1.0000 0.84845  0.60780  0.99322  Biso   1.000  O
  N6       1.0000 0.76598  0.88220  0.84067  Biso   1.000  N
  H19      1.0000 0.75890  0.77920  0.85360  Biso   1.000  H
  H20      1.0000 0.76210  0.90390  0.78580  Biso   1.000  H
  Zn3      1.0000 0.83554  0.76805  0.84001  Biso   1.000  Zn
  N7       1.0000 0.89962  0.91670  0.92663  Biso   1.000  N
  C29      1.0000 0.92403  0.91830  0.01912  Biso   1.000  C
  H21      1.0000 0.92080  0.82940  0.05540  Biso   1.000  H
  N8       1.0000 0.95381  0.06310  0.05419  Biso   1.000  N
  H22      1.0000 0.97300  0.08890  0.11300  Biso   1.000  H
  C30      1.0000 0.94890  0.16490  0.98044  Biso   1.000  C
  C31      1.0000 0.91514  0.07100  0.90177  Biso   1.000  C
  H23      1.0000 0.90420  0.10590  0.84030  Biso   1.000  H
  C32      1.0000 0.97517  0.33560  0.99174  Biso   1.000  C
  C33      1.0000 0.01130  0.40450  0.07890  Biso   1.000  C
  H24      1.0000 0.01930  0.34120  0.13300  Biso   1.000  H
  C34      1.0000 0.96410  0.43340  0.91280  Biso   1.000  C
  H25      1.0000 0.93980  0.38970  0.85320  Biso   1.000  H
  O9       1.0000 0.83299  0.78160  0.71853  Biso   1.000  O
  C35      1.0000 0.81705  0.91340  0.66395  Biso   1.000  C
  O10      1.0000 0.80675  0.05930  0.68440  Biso   1.000  O
  C36      1.0000 0.81163  0.88160  0.56780  Biso   1.000  C
  C37      1.0000 0.82544  0.72020  0.54659  Biso   1.000  C
  H26      1.0000 0.83920  0.63270  0.59220  Biso   1.000  H
  C38      1.0000 0.81889  0.68780  0.45722  Biso   1.000  C
  C39      1.0000 0.79878  0.82050  0.38992  Biso   1.000  C
  H27      1.0000 0.79500  0.80080  0.33050  Biso   1.000  H
  C40      1.0000 0.78438  0.98170  0.41088  Biso   1.000  C
  C41      1.0000 0.79098  0.01310  0.49967  Biso   1.000  C
  H28      1.0000 0.78160  0.12180  0.51390  Biso   1.000  H
  O11      1.0000 0.82366  0.48530  0.34960  Biso   1.000  O
  C42      1.0000 0.83177  0.51060  0.43367  Biso   1.000  C
  O12      1.0000 0.84845  0.39220  0.49322  Biso   1.000  O
  N9       1.0000 0.76598  0.11780  0.34067  Biso   1.000  N
  H29      1.0000 0.75890  0.22080  0.35360  Biso   1.000  H
  H30      1.0000 0.76210  0.09610  0.28580  Biso   1.000  H
  Zn4      1.0000 0.16446  0.76805  0.65999  Biso   1.000  Zn
  N10      1.0000 0.10038  0.91670  0.57337  Biso   1.000  N
  C43      1.0000 0.07597  0.91830  0.48088  Biso   1.000  C
  H31      1.0000 0.07920  0.82940  0.44460  Biso   1.000  H
  N11      1.0000 0.04619  0.06310  0.44581  Biso   1.000  N
  H32      1.0000 0.02700  0.08890  0.38700  Biso   1.000  H
  C44      1.0000 0.05110  0.16490  0.51956  Biso   1.000  C
  C45      1.0000 0.08486  0.07100  0.59823  Biso   1.000  C
  H33      1.0000 0.09580  0.10590  0.65970  Biso   1.000  H
  C46      1.0000 0.02483  0.33560  0.50826  Biso   1.000  C
  C47      1.0000 0.98870  0.40450  0.42110  Biso   1.000  C
  H34      1.0000 0.98070  0.34120  0.36700  Biso   1.000  H
  C48      1.0000 0.03590  0.43340  0.58720  Biso   1.000  C
  H35      1.0000 0.06020  0.38970  0.64680  Biso   1.000  H
  O13      1.0000 0.16701  0.78160  0.78147  Biso   1.000  O
  C49      1.0000 0.18295  0.91340  0.83605  Biso   1.000  C
  O14      1.0000 0.19325  0.05930  0.81560  Biso   1.000  O
  C50      1.0000 0.18837  0.88160  0.93220  Biso   1.000  C
  C51      1.0000 0.17456  0.72020  0.95341  Biso   1.000  C
  H36      1.0000 0.16080  0.63270  0.90780  Biso   1.000  H
  C52      1.0000 0.18111  0.68780  0.04278  Biso   1.000  C
  C53      1.0000 0.20122  0.82050  0.11008  Biso   1.000  C
  H37      1.0000 0.20500  0.80080  0.16950  Biso   1.000  H
  C54      1.0000 0.21562  0.98170  0.08912  Biso   1.000  C
  C55      1.0000 0.20902  0.01310  0.00033  Biso   1.000  C
  H38      1.0000 0.21840  0.12180  0.98610  Biso   1.000  H
  O15      1.0000 0.17634  0.48530  0.15040  Biso   1.000  O
  C56      1.0000 0.16823  0.51060  0.06633  Biso   1.000  C
  O16      1.0000 0.15155  0.39220  0.00678  Biso   1.000  O
  N12      1.0000 0.23402  0.11780  0.15933  Biso   1.000  N
  H39      1.0000 0.24110  0.22080  0.14640  Biso   1.000  H
  H40      1.0000 0.23790  0.09610  0.21420  Biso   1.000  H
  Zn5      1.0000 0.66446  0.73195  0.15999  Biso   1.000  Zn
  N13      1.0000 0.60038  0.58330  0.07337  Biso   1.000  N
  C57      1.0000 0.57597  0.58170  0.98088  Biso   1.000  C
  H41      1.0000 0.57920  0.67060  0.94460  Biso   1.000  H
  N14      1.0000 0.54619  0.43690  0.94581  Biso   1.000  N
  H42      1.0000 0.52700  0.41110  0.88700  Biso   1.000  H
  C58      1.0000 0.55110  0.33510  0.01956  Biso   1.000  C
  C59      1.0000 0.58486  0.42900  0.09823  Biso   1.000  C
  H43      1.0000 0.59580  0.39410  0.15970  Biso   1.000  H
  C60      1.0000 0.52483  0.16440  0.00826  Biso   1.000  C
  C61      1.0000 0.48870  0.09550  0.92110  Biso   1.000  C
  H44      1.0000 0.48070  0.15880  0.86700  Biso   1.000  H
  C62      1.0000 0.53590  0.06660  0.08720  Biso   1.000  C
  H45      1.0000 0.56020  0.11030  0.14680  Biso   1.000  H
  O17      1.0000 0.66701  0.71840  0.28147  Biso   1.000  O
  C63      1.0000 0.68295  0.58660  0.33605  Biso   1.000  C
  O18      1.0000 0.69325  0.44070  0.31560  Biso   1.000  O
  C64      1.0000 0.68837  0.61840  0.43220  Biso   1.000  C
  C65      1.0000 0.67456  0.77980  0.45341  Biso   1.000  C
  H46      1.0000 0.66080  0.86730  0.40780  Biso   1.000  H
  C66      1.0000 0.68111  0.81220  0.54278  Biso   1.000  C
  C67      1.0000 0.70122  0.67950  0.61008  Biso   1.000  C
  H47      1.0000 0.70500  0.69920  0.66950  Biso   1.000  H
  C68      1.0000 0.71562  0.51830  0.58912  Biso   1.000  C
  C69      1.0000 0.70902  0.48690  0.50033  Biso   1.000  C
  H48      1.0000 0.71840  0.37820  0.48610  Biso   1.000  H
  O19      1.0000 0.67634  0.01470  0.65040  Biso   1.000  O
  C70      1.0000 0.66823  0.98940  0.56633  Biso   1.000  C
  O20      1.0000 0.65155  0.10780  0.50678  Biso   1.000  O
  N15      1.0000 0.73402  0.38220  0.65933  Biso   1.000  N
  H49      1.0000 0.74110  0.27920  0.64640  Biso   1.000  H
  H50      1.0000 0.73790  0.40390  0.71420  Biso   1.000  H
  Zn6      1.0000 0.33554  0.73195  0.34001  Biso   1.000  Zn
  N16      1.0000 0.39962  0.58330  0.42663  Biso   1.000  N
  C71      1.0000 0.42403  0.58170  0.51912  Biso   1.000  C
  H51      1.0000 0.42080  0.67060  0.55540  Biso   1.000  H
  N17      1.0000 0.45381  0.43690  0.55419  Biso   1.000  N
  H52      1.0000 0.47300  0.41110  0.61300  Biso   1.000  H
  C72      1.0000 0.44890  0.33510  0.48044  Biso   1.000  C
  C73      1.0000 0.41514  0.42900  0.40177  Biso   1.000  C
  H53      1.0000 0.40420  0.39410  0.34030  Biso   1.000  H
  C74      1.0000 0.47517  0.16440  0.49174  Biso   1.000  C
  C75      1.0000 0.51130  0.09550  0.57890  Biso   1.000  C
  H54      1.0000 0.51930  0.15880  0.63300  Biso   1.000  H
  C76      1.0000 0.46410  0.06660  0.41280  Biso   1.000  C
  H55      1.0000 0.43980  0.11030  0.35320  Biso   1.000  H
  O21      1.0000 0.33299  0.71840  0.21853  Biso   1.000  O
  C77      1.0000 0.31705  0.58660  0.16395  Biso   1.000  C
  O22      1.0000 0.30675  0.44070  0.18440  Biso   1.000  O
  C78      1.0000 0.31163  0.61840  0.06780  Biso   1.000  C
  C79      1.0000 0.32544  0.77980  0.04659  Biso   1.000  C
  H56      1.0000 0.33920  0.86730  0.09220  Biso   1.000  H
  C80      1.0000 0.31889  0.81220  0.95722  Biso   1.000  C
  C81      1.0000 0.29878  0.67950  0.88992  Biso   1.000  C
  H57      1.0000 0.29500  0.69920  0.83050  Biso   1.000  H
  C82      1.0000 0.28438  0.51830  0.91088  Biso   1.000  C
  C83      1.0000 0.29098  0.48690  0.99967  Biso   1.000  C
  H58      1.0000 0.28160  0.37820  0.01390  Biso   1.000  H
  O23      1.0000 0.32366  0.01470  0.84960  Biso   1.000  O
  C84      1.0000 0.33177  0.98940  0.93367  Biso   1.000  C
  O24      1.0000 0.34845  0.10780  0.99322  Biso   1.000  O
  N18      1.0000 0.26598  0.38220  0.84067  Biso   1.000  N
  H59      1.0000 0.25890  0.27920  0.85360  Biso   1.000  H
  H60      1.0000 0.26210  0.40390  0.78580  Biso   1.000  H
  Zn7      1.0000 0.33554  0.26805  0.84001  Biso   1.000  Zn
  N19      1.0000 0.39962  0.41670  0.92663  Biso   1.000  N
  C85      1.0000 0.42403  0.41830  0.01912  Biso   1.000  C
  H61      1.0000 0.42080  0.32940  0.05540  Biso   1.000  H
  N20      1.0000 0.45381  0.56310  0.05419  Biso   1.000  N
  H62      1.0000 0.47300  0.58890  0.11300  Biso   1.000  H
  C86      1.0000 0.44890  0.66490  0.98044  Biso   1.000  C
  C87      1.0000 0.41514  0.57100  0.90177  Biso   1.000  C
  H63      1.0000 0.40420  0.60590  0.84030  Biso   1.000  H
  C88      1.0000 0.47517  0.83560  0.99174  Biso   1.000  C
  C89      1.0000 0.51130  0.90450  0.07890  Biso   1.000  C
  H64      1.0000 0.51930  0.84120  0.13300  Biso   1.000  H
  C90      1.0000 0.46410  0.93340  0.91280  Biso   1.000  C
  H65      1.0000 0.43980  0.88970  0.85320  Biso   1.000  H
  O25      1.0000 0.33299  0.28160  0.71853  Biso   1.000  O
  C91      1.0000 0.31705  0.41340  0.66395  Biso   1.000  C
  O26      1.0000 0.30675  0.55930  0.68440  Biso   1.000  O
  C92      1.0000 0.31163  0.38160  0.56780  Biso   1.000  C
  C93      1.0000 0.32544  0.22020  0.54659  Biso   1.000  C
  H66      1.0000 0.33920  0.13270  0.59220  Biso   1.000  H
  C94      1.0000 0.31889  0.18780  0.45722  Biso   1.000  C
  C95      1.0000 0.29878  0.32050  0.38992  Biso   1.000  C
  H67      1.0000 0.29500  0.30080  0.33050  Biso   1.000  H
  C96      1.0000 0.28438  0.48170  0.41088  Biso   1.000  C
  C97      1.0000 0.29098  0.51310  0.49967  Biso   1.000  C
  H68      1.0000 0.28160  0.62180  0.51390  Biso   1.000  H
  O27      1.0000 0.32366  0.98530  0.34960  Biso   1.000  O
  C98      1.0000 0.33177  0.01060  0.43367  Biso   1.000  C
  O28      1.0000 0.34845  0.89220  0.49322  Biso   1.000  O
  N21      1.0000 0.26598  0.61780  0.34067  Biso   1.000  N
  H69      1.0000 0.25890  0.72080  0.35360  Biso   1.000  H
  H70      1.0000 0.26210  0.59610  0.28580  Biso   1.000  H
  Zn8      1.0000 0.66446  0.26805  0.65999  Biso   1.000  Zn
  N22      1.0000 0.60038  0.41670  0.57337  Biso   1.000  N
  C99      1.0000 0.57597  0.41830  0.48088  Biso   1.000  C
  H71      1.0000 0.57920  0.32940  0.44460  Biso   1.000  H
  N23      1.0000 0.54619  0.56310  0.44581  Biso   1.000  N
  H72      1.0000 0.52700  0.58890  0.38700  Biso   1.000  H
  C100     1.0000 0.55110  0.66490  0.51956  Biso   1.000  C
  C101     1.0000 0.58486  0.57100  0.59823  Biso   1.000  C
  H73      1.0000 0.59580  0.60590  0.65970  Biso   1.000  H
  C102     1.0000 0.52483  0.83560  0.50826  Biso   1.000  C
  C103     1.0000 0.48870  0.90450  0.42110  Biso   1.000  C
  H74      1.0000 0.48070  0.84120  0.36700  Biso   1.000  H
  C104     1.0000 0.53590  0.93340  0.58720  Biso   1.000  C
  H75      1.0000 0.56020  0.88970  0.64680  Biso   1.000  H
  O29      1.0000 0.66701  0.28160  0.78147  Biso   1.000  O
  C105     1.0000 0.68295  0.41340  0.83605  Biso   1.000  C
  O30      1.0000 0.69325  0.55930  0.81560  Biso   1.000  O
  C106     1.0000 0.68837  0.38160  0.93220  Biso   1.000  C
  C107     1.0000 0.67456  0.22020  0.95341  Biso   1.000  C
  H76      1.0000 0.66080  0.13270  0.90780  Biso   1.000  H
  C108     1.0000 0.68111  0.18780  0.04278  Biso   1.000  C
  C109     1.0000 0.70122  0.32050  0.11008  Biso   1.000  C
  H77      1.0000 0.70500  0.30080  0.16950  Biso   1.000  H
  C110     1.0000 0.71562  0.48170  0.08912  Biso   1.000  C
  C111     1.0000 0.70902  0.51310  0.00033  Biso   1.000  C
  H78      1.0000 0.71840  0.62180  0.98610  Biso   1.000  H
  O31      1.0000 0.67634  0.98530  0.15040  Biso   1.000  O
  C112     1.0000 0.66823  0.01060  0.06633  Biso   1.000  C
  O32      1.0000 0.65155  0.89220  0.00678  Biso   1.000  O
  N24      1.0000 0.73402  0.61780  0.15933  Biso   1.000  N
  H79      1.0000 0.74110  0.72080  0.14640  Biso   1.000  H
  H80      1.0000 0.73790  0.59610  0.21420  Biso   1.000  H
