data_image0
_cell_length_a       18.1183
_cell_length_b       19.5986
_cell_length_c       24.7135
_cell_angle_alpha    75.385
_cell_angle_beta     83.625
_cell_angle_gamma    74.064

_symmetry_space_group_name_H-M    "P 1"
_symmetry_int_tables_number       1

loop_
  _symmetry_equiv_pos_as_xyz
  'x, y, z'

loop_
  _atom_site_label
  _atom_site_occupancy
  _atom_site_fract_x
  _atom_site_fract_y
  _atom_site_fract_z
  _atom_site_thermal_displace_type
  _atom_site_B_iso_or_equiv
  _atom_site_type_symbol
  Ag1      1.0000 0.01180  0.37186  0.94341  Biso   1.000  Ag
  S1       1.0000 0.11796  0.27359  0.99891  Biso   1.000  S
  S2       1.0000 0.94253  0.38557  0.04070  Biso   1.000  S
  S3       1.0000 0.96020  0.53484  0.14413  Biso   1.000  S
  S4       1.0000 0.71133  0.98648  0.17731  Biso   1.000  S
  S5       1.0000 0.81499  0.81085  0.24312  Biso   1.000  S
  S6       1.0000 0.95426  0.63872  0.26250  Biso   1.000  S
  F1       1.0000 0.63830  0.93380  0.99400  Biso   1.000  F
  F2       1.0000 0.56840  0.87160  0.05250  Biso   1.000  F
  F3       1.0000 0.66970  0.81590  0.01260  Biso   1.000  F
  O1       1.0000 0.12860  0.13030  0.10410  Biso   1.000  O
  O2       1.0000 0.01400  0.92710  0.15760  Biso   1.000  O
  O3       1.0000 0.02420  0.38280  0.23790  Biso   1.000  O
  O4       1.0000 0.25350  0.22240  0.17260  Biso   1.000  O
  O5       1.0000 0.77600  0.08010  0.28020  Biso   1.000  O
  O6       1.0000 0.87320  0.29150  0.19820  Biso   1.000  O
  O7       1.0000 0.99320  0.77750  0.30040  Biso   1.000  O
  O8       1.0000 0.79770  0.92310  0.40480  Biso   1.000  O
  O9       1.0000 0.67280  0.83280  0.12880  Biso   1.000  O
  O10      1.0000 0.74170  0.90130  0.07000  Biso   1.000  O
  O11      1.0000 0.57640  0.12510  0.59710  Biso   1.000  O
  O12      1.0000 0.62660  0.15900  0.51090  Biso   1.000  O
  C1       1.0000 0.08220  0.95300  0.22280  Biso   1.000  C
  C2       1.0000 0.12420  0.99880  0.23410  Biso   1.000  C
  H1       1.0000 0.14160  0.98860  0.27090  Biso   1.000  H
  C3       1.0000 0.14150  0.05700  0.19540  Biso   1.000  C
  C4       1.0000 0.11410  0.07150  0.14370  Biso   1.000  C
  C5       1.0000 0.07000  0.03200  0.12910  Biso   1.000  C
  H2       1.0000 0.04990  0.04530  0.09290  Biso   1.000  H
  C6       1.0000 0.05570  0.97150  0.16940  Biso   1.000  C
  C7       1.0000 0.19280  0.10230  0.20680  Biso   1.000  C
  H3       1.0000 0.22700  0.11050  0.17250  Biso   1.000  H
  C8       1.0000 0.14800  0.17830  0.21440  Biso   1.000  C
  C9       1.0000 0.07550  0.19080  0.24150  Biso   1.000  C
  H4       1.0000 0.05280  0.15100  0.25410  Biso   1.000  H
  C10      1.0000 0.03490  0.25750  0.25100  Biso   1.000  C
  C11      1.0000 0.06790  0.31590  0.23020  Biso   1.000  C
  C12      1.0000 0.14140  0.30520  0.20270  Biso   1.000  C
  H5       1.0000 0.16370  0.34520  0.18890  Biso   1.000  H
  C13      1.0000 0.18090  0.23600  0.19600  Biso   1.000  C
  C14      1.0000 0.96280  0.26780  0.28800  Biso   1.000  C
  H6       1.0000 0.93080  0.31820  0.27280  Biso   1.000  H
  C15      1.0000 0.91530  0.21560  0.28500  Biso   1.000  C
  C16      1.0000 0.91340  0.15320  0.32670  Biso   1.000  C
  H7       1.0000 0.94510  0.14140  0.35760  Biso   1.000  H
  C17      1.0000 0.86780  0.10760  0.32560  Biso   1.000  C
  C18      1.0000 0.82390  0.12500  0.28090  Biso   1.000  C
  C19      1.0000 0.82400  0.18540  0.23580  Biso   1.000  C
  H8       1.0000 0.79380  0.19550  0.20440  Biso   1.000  H
  C20      1.0000 0.87050  0.22970  0.23960  Biso   1.000  C
  C21      1.0000 0.86300  0.04030  0.37230  Biso   1.000  C
  H9       1.0000 0.80700  0.04330  0.38050  Biso   1.000  H
  C22      1.0000 0.89710  0.97040  0.35260  Biso   1.000  C
  C23      1.0000 0.96290  0.96020  0.31800  Biso   1.000  C
  H10      1.0000 0.98580  0.00000  0.30510  Biso   1.000  H
  C24      1.0000 0.99820  0.89570  0.30070  Biso   1.000  C
  C25      1.0000 0.96220  0.83980  0.32040  Biso   1.000  C
  C26      1.0000 0.89480  0.84730  0.35620  Biso   1.000  C
  H11      1.0000 0.87160  0.80770  0.36920  Biso   1.000  H
  C27      1.0000 0.86400  0.91090  0.37140  Biso   1.000  C
  C28      1.0000 0.07080  0.88430  0.26430  Biso   1.000  C
  H12      1.0000 0.06660  0.85010  0.24150  Biso   1.000  H
  C29      1.0000 0.00550  0.92990  0.10170  Biso   1.000  C
  H13      1.0000 0.05590  0.92420  0.08170  Biso   1.000  H
  H14      1.0000 0.97140  0.97700  0.08460  Biso   1.000  H
  H15      1.0000 0.98320  0.89050  0.09940  Biso   1.000  H
  C30      1.0000 0.29240  0.27970  0.16240  Biso   1.000  C
  H16      1.0000 0.26640  0.32090  0.13350  Biso   1.000  H
  H17      1.0000 0.34580  0.26140  0.14970  Biso   1.000  H
  H18      1.0000 0.29150  0.29570  0.19700  Biso   1.000  H
  C31      1.0000 0.82080  0.31200  0.15430  Biso   1.000  C
  H19      1.0000 0.82460  0.35900  0.13000  Biso   1.000  H
  H20      1.0000 0.76830  0.31630  0.17050  Biso   1.000  H
  H21      1.0000 0.83350  0.27480  0.13240  Biso   1.000  H
  C32      1.0000 0.75780  0.86780  0.41840  Biso   1.000  C
  H22      1.0000 0.75620  0.84990  0.38500  Biso   1.000  H
  H23      1.0000 0.70530  0.88770  0.43190  Biso   1.000  H
  H24      1.0000 0.78430  0.82740  0.44770  Biso   1.000  H
  C33      1.0000 0.15090  0.12380  0.04770  Biso   1.000  C
  H25      1.0000 0.14660  0.07620  0.04330  Biso   1.000  H
  H26      1.0000 0.20520  0.12570  0.03950  Biso   1.000  H
  C34      1.0000 0.10030  0.18480  0.00700  Biso   1.000  C
  H27      1.0000 0.04600  0.18780  0.01960  Biso   1.000  H
  H28      1.0000 0.10790  0.17250  0.96990  Biso   1.000  H
  C35      1.0000 0.08950  0.29370  0.06730  Biso   1.000  C
  H29      1.0000 0.11860  0.25300  0.09590  Biso   1.000  H
  H30      1.0000 0.10490  0.33810  0.06820  Biso   1.000  H
  C36      1.0000 0.00480  0.30530  0.08370  Biso   1.000  C
  H31      1.0000 0.99710  0.30950  0.12320  Biso   1.000  H
  H32      1.0000 0.98880  0.26160  0.08170  Biso   1.000  H
  C37      1.0000 0.96580  0.45750  0.06320  Biso   1.000  C
  H33      1.0000 0.02230  0.44710  0.06440  Biso   1.000  H
  H34      1.0000 0.94800  0.50400  0.03540  Biso   1.000  H
  C38      1.0000 0.92960  0.46660  0.12090  Biso   1.000  C
  H35      1.0000 0.94430  0.41930  0.14840  Biso   1.000  H
  H36      1.0000 0.87300  0.48090  0.11920  Biso   1.000  H
  C39      1.0000 0.05640  0.48550  0.16740  Biso   1.000  C
  H37      1.0000 0.08020  0.45160  0.14290  Biso   1.000  H
  H38      1.0000 0.08780  0.52100  0.16260  Biso   1.000  H
  C40      1.0000 0.05960  0.44250  0.22730  Biso   1.000  C
  H39      1.0000 0.11410  0.42310  0.23740  Biso   1.000  H
  H40      1.0000 0.03380  0.47570  0.25190  Biso   1.000  H
  C41      1.0000 0.75800  0.07520  0.23090  Biso   1.000  C
  H41      1.0000 0.80540  0.05930  0.20840  Biso   1.000  H
  H42      1.0000 0.72880  0.12370  0.21030  Biso   1.000  H
  C42      1.0000 0.70860  0.01950  0.23980  Biso   1.000  C
  H43      1.0000 0.65480  0.04300  0.24970  Biso   1.000  H
  H44      1.0000 0.72820  0.97790  0.27130  Biso   1.000  H
  C43      1.0000 0.81260  0.94570  0.16640  Biso   1.000  C
  H45      1.0000 0.81910  0.92140  0.13500  Biso   1.000  H
  H46      1.0000 0.83950  0.98510  0.15500  Biso   1.000  H
  C44      1.0000 0.85100  0.89140  0.21570  Biso   1.000  C
  H47      1.0000 0.84710  0.91670  0.24630  Biso   1.000  H
  H48      1.0000 0.90630  0.87500  0.20530  Biso   1.000  H
  C45      1.0000 0.85900  0.75750  0.19160  Biso   1.000  C
  H49      1.0000 0.82940  0.72180  0.19210  Biso   1.000  H
  H50      1.0000 0.85610  0.79060  0.15390  Biso   1.000  H
  C46      1.0000 0.94180  0.71740  0.20230  Biso   1.000  C
  H51      1.0000 0.96920  0.75180  0.20860  Biso   1.000  H
  H52      1.0000 0.96580  0.70040  0.16850  Biso   1.000  H
  C47      1.0000 0.02260  0.65090  0.30420  Biso   1.000  C
  H53      1.0000 0.04370  0.60350  0.33020  Biso   1.000  H
  H54      1.0000 0.06570  0.66370  0.27900  Biso   1.000  H
  C48      1.0000 0.99370  0.70730  0.33790  Biso   1.000  C
  H55      1.0000 0.94120  0.70650  0.35370  Biso   1.000  H
  H56      1.0000 0.02780  0.69780  0.36910  Biso   1.000  H
  C49      1.0000 0.24600  0.06340  0.25540  Biso   1.000  C
  H57      1.0000 0.27230  0.09840  0.26220  Biso   1.000  H
  H58      1.0000 0.21410  0.04960  0.28950  Biso   1.000  H
  C50      1.0000 0.30630  0.99590  0.24720  Biso   1.000  C
  H59      1.0000 0.33350  0.00680  0.21070  Biso   1.000  H
  H60      1.0000 0.28160  0.95680  0.24840  Biso   1.000  H
  H61      1.0000 0.34300  0.98030  0.27700  Biso   1.000  H
  C51      1.0000 0.98200  0.26550  0.34680  Biso   1.000  C
  H62      1.0000 0.01710  0.29700  0.34450  Biso   1.000  H
  H63      1.0000 0.00920  0.21490  0.36480  Biso   1.000  H
  C52      1.0000 0.91100  0.29070  0.38280  Biso   1.000  C
  H64      1.0000 0.89180  0.34380  0.37120  Biso   1.000  H
  H65      1.0000 0.92440  0.27690  0.42220  Biso   1.000  H
  H66      1.0000 0.87120  0.26750  0.37830  Biso   1.000  H
  C53      1.0000 0.89590  0.03840  0.42770  Biso   1.000  C
  H67      1.0000 0.89770  0.99030  0.45350  Biso   1.000  H
  H68      1.0000 0.94940  0.04290  0.42010  Biso   1.000  H
  C54      1.0000 0.85150  0.09670  0.45640  Biso   1.000  C
  H69      1.0000 0.86050  0.14370  0.43590  Biso   1.000  H
  H70      1.0000 0.86820  0.08530  0.49470  Biso   1.000  H
  H71      1.0000 0.79660  0.09940  0.45730  Biso   1.000  H
  C55      1.0000 0.14040  0.84430  0.30180  Biso   1.000  C
  H72      1.0000 0.15150  0.87860  0.32110  Biso   1.000  H
  H73      1.0000 0.12720  0.80370  0.33070  Biso   1.000  H
  C56      1.0000 0.21100  0.81440  0.26770  Biso   1.000  C
  H74      1.0000 0.22480  0.85470  0.23960  Biso   1.000  H
  H75      1.0000 0.20020  0.78000  0.24890  Biso   1.000  H
  H76      1.0000 0.25370  0.78930  0.29250  Biso   1.000  H
  C57      1.0000 0.68850  0.86870  0.08520  Biso   1.000  C
  C58      1.0000 0.64150  0.87310  0.03650  Biso   1.000  C
  C59      1.0000 0.62170  0.14650  0.56620  Biso   1.000  C
  C60      1.0000 0.67960  0.17050  0.59270  Biso   1.000  C
  S7       1.0000 0.38840  0.23243  0.51396  Biso   1.000  S
  S8       1.0000 0.56086  0.98169  0.35468  Biso   1.000  S
  S9       1.0000 0.79943  0.51386  0.33932  Biso   1.000  S
  S10      1.0000 0.69393  0.69263  0.28327  Biso   1.000  S
  S11      1.0000 0.55090  0.86150  0.27254  Biso   1.000  S
  O13      1.0000 0.41400  0.37130  0.41220  Biso   1.000  O
  O14      1.0000 0.48650  0.59930  0.34680  Biso   1.000  O
  O15      1.0000 0.49200  0.13330  0.25930  Biso   1.000  O
  O16      1.0000 0.26490  0.28200  0.33890  Biso   1.000  O
  O17      1.0000 0.71120  0.45380  0.25310  Biso   1.000  O
  O18      1.0000 0.63510  0.22700  0.31700  Biso   1.000  O
  O19      1.0000 0.49740  0.74340  0.21930  Biso   1.000  O
  O20      1.0000 0.71060  0.60310  0.12570  Biso   1.000  O
  C61      1.0000 0.41800  0.56140  0.28870  Biso   1.000  C
  C62      1.0000 0.38080  0.51160  0.28200  Biso   1.000  C
  H77      1.0000 0.35760  0.52020  0.24750  Biso   1.000  H
  C63      1.0000 0.37540  0.44890  0.32340  Biso   1.000  C
  C64      1.0000 0.41420  0.43570  0.37230  Biso   1.000  C
  C65      1.0000 0.45250  0.48490  0.38060  Biso   1.000  C
  H78      1.0000 0.47810  0.47560  0.41430  Biso   1.000  H
  C66      1.0000 0.45270  0.54710  0.33950  Biso   1.000  C
  C67      1.0000 0.32440  0.40000  0.31680  Biso   1.000  C
  H79      1.0000 0.29870  0.38590  0.35440  Biso   1.000  H
  C68      1.0000 0.36900  0.32950  0.30140  Biso   1.000  C
  C69      1.0000 0.44060  0.32040  0.27280  Biso   1.000  C
  H80      1.0000 0.46360  0.36020  0.26340  Biso   1.000  H
  C70      1.0000 0.47990  0.25610  0.25740  Biso   1.000  C
  C71      1.0000 0.44710  0.19800  0.27250  Biso   1.000  C
  C72      1.0000 0.37420  0.20480  0.29910  Biso   1.000  C
  H81      1.0000 0.35160  0.16480  0.30800  Biso   1.000  H
  C73      1.0000 0.33530  0.27020  0.31240  Biso   1.000  C
  C74      1.0000 0.55620  0.25000  0.22250  Biso   1.000  C
  H82      1.0000 0.58950  0.20010  0.23750  Biso   1.000  H
  C75      1.0000 0.59880  0.30350  0.22920  Biso   1.000  C
  C76      1.0000 0.60070  0.36720  0.18910  Biso   1.000  C
  H83      1.0000 0.57320  0.37770  0.15620  Biso   1.000  H
  C77      1.0000 0.64030  0.41640  0.19440  Biso   1.000  C
  C78      1.0000 0.67610  0.40270  0.24460  Biso   1.000  C
  C79      1.0000 0.67470  0.34110  0.28610  Biso   1.000  C
  H84      1.0000 0.69890  0.33290  0.32020  Biso   1.000  H
  C80      1.0000 0.63770  0.29060  0.27830  Biso   1.000  C
  C81      1.0000 0.64850  0.48320  0.14880  Biso   1.000  C
  H85      1.0000 0.70430  0.48210  0.14490  Biso   1.000  H
  C82      1.0000 0.60610  0.55360  0.16640  Biso   1.000  C
  C83      1.0000 0.53590  0.56200  0.19520  Biso   1.000  C
  H86      1.0000 0.51260  0.52230  0.20390  Biso   1.000  H
  C84      1.0000 0.49720  0.62570  0.21210  Biso   1.000  C
  C85      1.0000 0.53180  0.68430  0.19690  Biso   1.000  C
  C86      1.0000 0.60120  0.67820  0.16700  Biso   1.000  C
  H87      1.0000 0.62340  0.71860  0.15670  Biso   1.000  H
  C87      1.0000 0.63820  0.61460  0.15210  Biso   1.000  C
  C88      1.0000 0.42100  0.63070  0.24500  Biso   1.000  C
  H88      1.0000 0.41480  0.66980  0.26570  Biso   1.000  H
  C89      1.0000 0.50150  0.59780  0.40210  Biso   1.000  C
  H89      1.0000 0.51960  0.64050  0.40200  Biso   1.000  H
  H90      1.0000 0.54100  0.55320  0.41680  Biso   1.000  H
  H91      1.0000 0.45430  0.59850  0.42570  Biso   1.000  H
  C90      1.0000 0.22380  0.22710  0.34850  Biso   1.000  C
  H92      1.0000 0.21180  0.22120  0.31250  Biso   1.000  H
  H93      1.0000 0.17600  0.24170  0.37020  Biso   1.000  H
  H94      1.0000 0.25540  0.18080  0.36930  Biso   1.000  H
  C91      1.0000 0.67850  0.21020  0.36530  Biso   1.000  C
  H95      1.0000 0.73030  0.21630  0.35400  Biso   1.000  H
  H96      1.0000 0.68180  0.15970  0.38570  Biso   1.000  H
  H97      1.0000 0.65330  0.24320  0.38970  Biso   1.000  H
  C92      1.0000 0.75080  0.65720  0.12040  Biso   1.000  C
  H98      1.0000 0.72590  0.70140  0.09340  Biso   1.000  H
  H99      1.0000 0.80400  0.63910  0.10740  Biso   1.000  H
  H100     1.0000 0.75040  0.66870  0.15690  Biso   1.000  H
  C93      1.0000 0.41750  0.37110  0.47100  Biso   1.000  C
  H101     1.0000 0.36550  0.39150  0.48630  Biso   1.000  H
  H102     1.0000 0.45110  0.40180  0.47450  Biso   1.000  H
  C94      1.0000 0.44930  0.29280  0.50380  Biso   1.000  C
  H103     1.0000 0.46290  0.29450  0.54100  Biso   1.000  H
  H104     1.0000 0.49750  0.27150  0.48410  Biso   1.000  H
  C95      1.0000 0.39090  0.21750  0.44390  Biso   1.000  C
  H105     1.0000 0.35710  0.18530  0.44410  Biso   1.000  H
  H106     1.0000 0.36970  0.26490  0.41790  Biso   1.000  H
  C96      1.0000 0.46940  0.18410  0.42220  Biso   1.000  C
  H107     1.0000 0.50820  0.20500  0.43260  Biso   1.000  H
  H108     1.0000 0.47110  0.19190  0.38090  Biso   1.000  H
  H109     1.0000 0.48940  0.22550  0.40020  Biso   1.000  H
  H110     1.0000 0.46140  0.15780  0.39490  Biso   1.000  H
  C97      1.0000 0.58040  0.05310  0.43640  Biso   1.000  C
  H111     1.0000 0.61010  0.08440  0.44490  Biso   1.000  H
  H112     1.0000 0.60020  0.00330  0.45950  Biso   1.000  H
  H113     1.0000 0.62860  0.02330  0.45460  Biso   1.000  H
  H114     1.0000 0.54220  0.02420  0.44990  Biso   1.000  H
  C98      1.0000 0.59650  0.05060  0.37490  Biso   1.000  C
  H115     1.0000 0.65270  0.04060  0.36670  Biso   1.000  H
  H116     1.0000 0.57260  0.09920  0.35140  Biso   1.000  H
  C99      1.0000 0.46380  0.02900  0.33080  Biso   1.000  C
  H117     1.0000 0.43370  0.99250  0.33570  Biso   1.000  H
  H118     1.0000 0.43880  0.06280  0.35510  Biso   1.000  H
  C100     1.0000 0.46030  0.07130  0.27120  Biso   1.000  C
  H119     1.0000 0.48810  0.03810  0.24720  Biso   1.000  H
  H120     1.0000 0.40590  0.08830  0.26090  Biso   1.000  H
  C101     1.0000 0.78890  0.42650  0.26690  Biso   1.000  C
  H121     1.0000 0.81930  0.40320  0.23750  Biso   1.000  H
  H122     1.0000 0.79360  0.38950  0.30280  Biso   1.000  H
  C102     1.0000 0.81840  0.48950  0.27180  Biso   1.000  C
  H123     1.0000 0.79510  0.53280  0.24260  Biso   1.000  H
  H124     1.0000 0.87460  0.47740  0.26370  Biso   1.000  H
  C103     1.0000 0.69600  0.54880  0.34400  Biso   1.000  C
  H125     1.0000 0.67230  0.50800  0.34750  Biso   1.000  H
  H126     1.0000 0.68190  0.56690  0.37870  Biso   1.000  H
  C104     1.0000 0.66200  0.60940  0.29530  Biso   1.000  C
  H127     1.0000 0.60540  0.62210  0.30120  Biso   1.000  H
  H128     1.0000 0.67420  0.59050  0.26090  Biso   1.000  H
  C105     1.0000 0.64070  0.73580  0.33740  Biso   1.000  C
  H129     1.0000 0.64130  0.69790  0.37260  Biso   1.000  H
  H130     1.0000 0.66740  0.77070  0.34360  Biso   1.000  H
  C106     1.0000 0.55820  0.77580  0.32480  Biso   1.000  C
  H131     1.0000 0.52980  0.78590  0.35970  Biso   1.000  H
  H132     1.0000 0.53380  0.74430  0.31090  Biso   1.000  H
  C107     1.0000 0.47760  0.86610  0.22660  Biso   1.000  C
  H133     1.0000 0.43220  0.85560  0.24990  Biso   1.000  H
  H134     1.0000 0.46170  0.91660  0.20380  Biso   1.000  H
  C108     1.0000 0.50080  0.81450  0.18730  Biso   1.000  C
  H135     1.0000 0.46540  0.83090  0.15620  Biso   1.000  H
  H136     1.0000 0.55360  0.81360  0.17130  Biso   1.000  H
  C109     1.0000 0.26090  0.43970  0.27670  Biso   1.000  C
  H137     1.0000 0.23400  0.40410  0.27190  Biso   1.000  H
  H138     1.0000 0.28430  0.45860  0.23980  Biso   1.000  H
  C110     1.0000 0.20140  0.50310  0.29450  Biso   1.000  C
  H139     1.0000 0.16550  0.52830  0.26460  Biso   1.000  H
  H140     1.0000 0.22740  0.53740  0.30180  Biso   1.000  H
  H141     1.0000 0.17300  0.48440  0.32860  Biso   1.000  H
  C111     1.0000 0.54100  0.25380  0.16210  Biso   1.000  C
  H142     1.0000 0.51500  0.30470  0.14410  Biso   1.000  H
  H143     1.0000 0.50570  0.22310  0.16230  Biso   1.000  H
  C112     1.0000 0.61410  0.22830  0.12740  Biso   1.000  C
  H144     1.0000 0.60060  0.23050  0.08960  Biso   1.000  H
  H145     1.0000 0.64030  0.17800  0.14510  Biso   1.000  H
  H146     1.0000 0.64820  0.26010  0.12530  Biso   1.000  H
  C113     1.0000 0.62450  0.48480  0.09060  Biso   1.000  C
  H147     1.0000 0.62360  0.53330  0.06590  Biso   1.000  H
  H148     1.0000 0.57150  0.47890  0.09420  Biso   1.000  H
  C114     1.0000 0.67680  0.42590  0.06240  Biso   1.000  C
  H149     1.0000 0.66090  0.43420  0.02410  Biso   1.000  H
  H150     1.0000 0.67250  0.37760  0.08370  Biso   1.000  H
  H151     1.0000 0.73020  0.42860  0.06130  Biso   1.000  H
  C115     1.0000 0.35470  0.65710  0.20360  Biso   1.000  C
  H152     1.0000 0.36270  0.62260  0.17900  Biso   1.000  H
  H153     1.0000 0.30540  0.65630  0.22530  Biso   1.000  H
  C116     1.0000 0.34880  0.73350  0.16730  Biso   1.000  C
  H154     1.0000 0.39700  0.73460  0.14520  Biso   1.000  H
  H155     1.0000 0.33910  0.76830  0.19120  Biso   1.000  H
  H156     1.0000 0.30640  0.74670  0.14200  Biso   1.000  H
  Ag2      1.0000 0.66970  0.86260  0.18690  Biso   1.000  Ag
  Ag3      1.0000 0.48220  0.12220  0.56340  Biso   1.000  Ag
  Ag4      1.0000 0.83240  0.63960  0.28930  Biso   1.000  Ag
  S12      1.0000 0.55290  0.11910  0.46600  Biso   1.000  S
  F4       1.0000 0.66600  0.16800  0.65000  Biso   1.000  F
  F5       1.0000 0.69100  0.23950  0.56700  Biso   1.000  F
  F6       1.0000 0.75040  0.12100  0.60300  Biso   1.000  F
  Ag5      1.0000 0.83071  0.64146  0.32229  Biso   1.000  Ag
  S13      1.0000 0.48682  0.08432  0.45685  Biso   1.000  S
  Ag6      1.0000 0.67355  0.86235  0.21648  Biso   1.000  Ag
  Ag7      1.0000 0.47461  0.10261  0.55758  Biso   1.000  Ag
  F7       1.0000 0.71850  0.11200  0.63080  Biso   1.000  F
  F8       1.0000 0.64570  0.22820  0.61500  Biso   1.000  F
  F9       1.0000 0.73610  0.18840  0.55450  Biso   1.000  F
  Ag8      1.0000 0.98820  0.62814  0.05659  Biso   1.000  Ag
  S14      1.0000 0.88204  0.72641  0.00109  Biso   1.000  S
  S15      1.0000 0.05747  0.61443  0.95930  Biso   1.000  S
  S16      1.0000 0.03980  0.46516  0.85587  Biso   1.000  S
  S17      1.0000 0.28867  0.01352  0.82269  Biso   1.000  S
  S18      1.0000 0.18501  0.18915  0.75688  Biso   1.000  S
  S19      1.0000 0.04574  0.36128  0.73750  Biso   1.000  S
  F10      1.0000 0.36170  0.06620  0.00600  Biso   1.000  F
  F11      1.0000 0.43160  0.12840  0.94750  Biso   1.000  F
  F12      1.0000 0.33030  0.18410  0.98740  Biso   1.000  F
  O21      1.0000 0.87140  0.86970  0.89590  Biso   1.000  O
  O22      1.0000 0.98600  0.07290  0.84240  Biso   1.000  O
  O23      1.0000 0.97580  0.61720  0.76210  Biso   1.000  O
  O24      1.0000 0.74650  0.77760  0.82740  Biso   1.000  O
  O25      1.0000 0.22400  0.91990  0.71980  Biso   1.000  O
  O26      1.0000 0.12680  0.70850  0.80180  Biso   1.000  O
  O27      1.0000 0.00680  0.22250  0.69960  Biso   1.000  O
  O28      1.0000 0.20230  0.07690  0.59520  Biso   1.000  O
  O29      1.0000 0.32720  0.16720  0.87120  Biso   1.000  O
  O30      1.0000 0.25830  0.09870  0.93000  Biso   1.000  O
  O31      1.0000 0.42360  0.87490  0.40290  Biso   1.000  O
  O32      1.0000 0.37340  0.84100  0.48910  Biso   1.000  O
  C117     1.0000 0.91780  0.04700  0.77720  Biso   1.000  C
  C118     1.0000 0.87580  0.00120  0.76590  Biso   1.000  C
  H157     1.0000 0.85840  0.01140  0.72910  Biso   1.000  H
  C119     1.0000 0.85850  0.94300  0.80460  Biso   1.000  C
  C120     1.0000 0.88590  0.92850  0.85630  Biso   1.000  C
  C121     1.0000 0.93000  0.96800  0.87090  Biso   1.000  C
  H158     1.0000 0.95010  0.95470  0.90710  Biso   1.000  H
  C122     1.0000 0.94430  0.02850  0.83060  Biso   1.000  C
  C123     1.0000 0.80720  0.89770  0.79320  Biso   1.000  C
  H159     1.0000 0.77300  0.88950  0.82750  Biso   1.000  H
  C124     1.0000 0.85200  0.82170  0.78560  Biso   1.000  C
  C125     1.0000 0.92450  0.80920  0.75850  Biso   1.000  C
  H160     1.0000 0.94720  0.84900  0.74590  Biso   1.000  H
  C126     1.0000 0.96510  0.74250  0.74900  Biso   1.000  C
  C127     1.0000 0.93210  0.68410  0.76980  Biso   1.000  C
  C128     1.0000 0.85860  0.69480  0.79730  Biso   1.000  C
  H161     1.0000 0.83630  0.65480  0.81110  Biso   1.000  H
  C129     1.0000 0.81910  0.76400  0.80400  Biso   1.000  C
  C130     1.0000 0.03720  0.73220  0.71200  Biso   1.000  C
  H162     1.0000 0.06920  0.68180  0.72720  Biso   1.000  H
  C131     1.0000 0.08470  0.78440  0.71500  Biso   1.000  C
  C132     1.0000 0.08660  0.84680  0.67330  Biso   1.000  C
  H163     1.0000 0.05490  0.85860  0.64240  Biso   1.000  H
  C133     1.0000 0.13220  0.89240  0.67440  Biso   1.000  C
  C134     1.0000 0.17610  0.87500  0.71910  Biso   1.000  C
  C135     1.0000 0.17600  0.81460  0.76420  Biso   1.000  C
  H164     1.0000 0.20620  0.80450  0.79560  Biso   1.000  H
  C136     1.0000 0.12950  0.77030  0.76040  Biso   1.000  C
  C137     1.0000 0.13700  0.95970  0.62770  Biso   1.000  C
  H165     1.0000 0.19300  0.95670  0.61950  Biso   1.000  H
  C138     1.0000 0.10290  0.02960  0.64740  Biso   1.000  C
  C139     1.0000 0.03710  0.03980  0.68200  Biso   1.000  C
  H166     1.0000 0.01420  0.00000  0.69490  Biso   1.000  H
  C140     1.0000 0.00180  0.10430  0.69930  Biso   1.000  C
  C141     1.0000 0.03780  0.16020  0.67960  Biso   1.000  C
  C142     1.0000 0.10520  0.15270  0.64380  Biso   1.000  C
  H167     1.0000 0.12840  0.19230  0.63080  Biso   1.000  H
  C143     1.0000 0.13600  0.08910  0.62860  Biso   1.000  C
  C144     1.0000 0.92920  0.11570  0.73570  Biso   1.000  C
  H168     1.0000 0.93340  0.14990  0.75850  Biso   1.000  H
  C145     1.0000 0.99450  0.07010  0.89830  Biso   1.000  C
  H169     1.0000 0.94410  0.07580  0.91830  Biso   1.000  H
  H170     1.0000 0.02860  0.02300  0.91540  Biso   1.000  H
  H171     1.0000 0.01680  0.10950  0.90060  Biso   1.000  H
  C146     1.0000 0.70760  0.72030  0.83760  Biso   1.000  C
  H172     1.0000 0.73360  0.67910  0.86650  Biso   1.000  H
  H173     1.0000 0.65420  0.73860  0.85030  Biso   1.000  H
  H174     1.0000 0.70850  0.70430  0.80300  Biso   1.000  H
  C147     1.0000 0.17920  0.68800  0.84570  Biso   1.000  C
  H175     1.0000 0.17540  0.64100  0.87000  Biso   1.000  H
  H176     1.0000 0.23170  0.68370  0.82950  Biso   1.000  H
  H177     1.0000 0.16650  0.72520  0.86760  Biso   1.000  H
  C148     1.0000 0.24220  0.13220  0.58160  Biso   1.000  C
  H178     1.0000 0.24380  0.15010  0.61500  Biso   1.000  H
  H179     1.0000 0.29470  0.11230  0.56810  Biso   1.000  H
  H180     1.0000 0.21570  0.17260  0.55230  Biso   1.000  H
  C149     1.0000 0.84910  0.87620  0.95230  Biso   1.000  C
  H181     1.0000 0.85340  0.92380  0.95670  Biso   1.000  H
  H182     1.0000 0.79480  0.87430  0.96050  Biso   1.000  H
  C150     1.0000 0.89970  0.81520  0.99300  Biso   1.000  C
  H183     1.0000 0.95400  0.81220  0.98040  Biso   1.000  H
  H184     1.0000 0.89210  0.82750  0.03010  Biso   1.000  H
  C151     1.0000 0.91050  0.70630  0.93270  Biso   1.000  C
  H185     1.0000 0.88140  0.74700  0.90410  Biso   1.000  H
  H186     1.0000 0.89510  0.66190  0.93180  Biso   1.000  H
  C152     1.0000 0.99520  0.69470  0.91630  Biso   1.000  C
  H187     1.0000 0.00290  0.69050  0.87680  Biso   1.000  H
  H188     1.0000 0.01120  0.73840  0.91830  Biso   1.000  H
  C153     1.0000 0.03420  0.54250  0.93680  Biso   1.000  C
  H189     1.0000 0.97770  0.55290  0.93560  Biso   1.000  H
  H190     1.0000 0.05200  0.49600  0.96460  Biso   1.000  H
  C154     1.0000 0.07040  0.53340  0.87910  Biso   1.000  C
  H191     1.0000 0.05570  0.58070  0.85160  Biso   1.000  H
  H192     1.0000 0.12700  0.51910  0.88080  Biso   1.000  H
  C155     1.0000 0.94360  0.51450  0.83260  Biso   1.000  C
  H193     1.0000 0.91980  0.54840  0.85710  Biso   1.000  H
  H194     1.0000 0.91220  0.47900  0.83740  Biso   1.000  H
  C156     1.0000 0.94040  0.55750  0.77270  Biso   1.000  C
  H195     1.0000 0.88590  0.57690  0.76260  Biso   1.000  H
  H196     1.0000 0.96620  0.52430  0.74810  Biso   1.000  H
  C157     1.0000 0.24200  0.92480  0.76910  Biso   1.000  C
  H197     1.0000 0.19460  0.94070  0.79160  Biso   1.000  H
  H198     1.0000 0.27120  0.87630  0.78970  Biso   1.000  H
  C158     1.0000 0.29140  0.98050  0.76020  Biso   1.000  C
  H199     1.0000 0.34520  0.95700  0.75030  Biso   1.000  H
  H200     1.0000 0.27180  0.02210  0.72870  Biso   1.000  H
  C159     1.0000 0.18740  0.05430  0.83360  Biso   1.000  C
  H201     1.0000 0.18090  0.07860  0.86500  Biso   1.000  H
  H202     1.0000 0.16050  0.01490  0.84500  Biso   1.000  H
  C160     1.0000 0.14900  0.10860  0.78430  Biso   1.000  C
  H203     1.0000 0.15290  0.08330  0.75370  Biso   1.000  H
  H204     1.0000 0.09370  0.12500  0.79470  Biso   1.000  H
  C161     1.0000 0.14100  0.24250  0.80840  Biso   1.000  C
  H205     1.0000 0.17060  0.27820  0.80790  Biso   1.000  H
  H206     1.0000 0.14390  0.20940  0.84610  Biso   1.000  H
  C162     1.0000 0.05820  0.28260  0.79770  Biso   1.000  C
  H207     1.0000 0.03080  0.24820  0.79140  Biso   1.000  H
  H208     1.0000 0.03420  0.29960  0.83150  Biso   1.000  H
  C163     1.0000 0.97740  0.34910  0.69580  Biso   1.000  C
  H209     1.0000 0.95630  0.39650  0.66980  Biso   1.000  H
  H210     1.0000 0.93430  0.33630  0.72100  Biso   1.000  H
  C164     1.0000 0.00630  0.29270  0.66210  Biso   1.000  C
  H211     1.0000 0.05880  0.29350  0.64630  Biso   1.000  H
  H212     1.0000 0.97220  0.30220  0.63090  Biso   1.000  H
  C165     1.0000 0.75400  0.93660  0.74460  Biso   1.000  C
  H213     1.0000 0.72770  0.90160  0.73780  Biso   1.000  H
  H214     1.0000 0.78590  0.95040  0.71050  Biso   1.000  H
  C166     1.0000 0.69370  0.00410  0.75280  Biso   1.000  C
  H215     1.0000 0.66650  0.99320  0.78930  Biso   1.000  H
  H216     1.0000 0.71840  0.04320  0.75160  Biso   1.000  H
  H217     1.0000 0.65700  0.01970  0.72300  Biso   1.000  H
  C167     1.0000 0.01800  0.73450  0.65320  Biso   1.000  C
  H218     1.0000 0.98290  0.70300  0.65550  Biso   1.000  H
  H219     1.0000 0.99080  0.78510  0.63520  Biso   1.000  H
  C168     1.0000 0.08900  0.70930  0.61720  Biso   1.000  C
  H220     1.0000 0.10820  0.65620  0.62880  Biso   1.000  H
  H221     1.0000 0.07560  0.72310  0.57780  Biso   1.000  H
  H222     1.0000 0.12880  0.73250  0.62170  Biso   1.000  H
  C169     1.0000 0.10410  0.96160  0.57230  Biso   1.000  C
  H223     1.0000 0.10230  0.00970  0.54650  Biso   1.000  H
  H224     1.0000 0.05060  0.95710  0.57990  Biso   1.000  H
  C170     1.0000 0.14850  0.90330  0.54360  Biso   1.000  C
  H225     1.0000 0.13950  0.85630  0.56410  Biso   1.000  H
  H226     1.0000 0.13180  0.91470  0.50530  Biso   1.000  H
  H227     1.0000 0.20340  0.90060  0.54270  Biso   1.000  H
  C171     1.0000 0.85960  0.15570  0.69820  Biso   1.000  C
  H228     1.0000 0.84850  0.12140  0.67890  Biso   1.000  H
  H229     1.0000 0.87280  0.19630  0.66930  Biso   1.000  H
  C172     1.0000 0.78900  0.18560  0.73230  Biso   1.000  C
  H230     1.0000 0.77520  0.14530  0.76040  Biso   1.000  H
  H231     1.0000 0.79980  0.22000  0.75110  Biso   1.000  H
  H232     1.0000 0.74630  0.21070  0.70750  Biso   1.000  H
  C173     1.0000 0.31150  0.13130  0.91480  Biso   1.000  C
  C174     1.0000 0.35850  0.12690  0.96350  Biso   1.000  C
  C175     1.0000 0.37830  0.85350  0.43380  Biso   1.000  C
  C176     1.0000 0.32040  0.82950  0.40730  Biso   1.000  C
  S20      1.0000 0.61160  0.76757  0.48604  Biso   1.000  S
  S21      1.0000 0.43914  0.01831  0.64532  Biso   1.000  S
  S22      1.0000 0.20057  0.48614  0.66068  Biso   1.000  S
  S23      1.0000 0.30607  0.30737  0.71673  Biso   1.000  S
  S24      1.0000 0.44910  0.13850  0.72746  Biso   1.000  S
  O33      1.0000 0.58600  0.62870  0.58780  Biso   1.000  O
  O34      1.0000 0.51350  0.40070  0.65320  Biso   1.000  O
  O35      1.0000 0.50800  0.86670  0.74070  Biso   1.000  O
  O36      1.0000 0.73510  0.71800  0.66110  Biso   1.000  O
  O37      1.0000 0.28880  0.54620  0.74690  Biso   1.000  O
  O38      1.0000 0.36490  0.77300  0.68300  Biso   1.000  O
  O39      1.0000 0.50260  0.25660  0.78070  Biso   1.000  O
  O40      1.0000 0.28940  0.39690  0.87430  Biso   1.000  O
  C177     1.0000 0.58200  0.43860  0.71130  Biso   1.000  C
  C178     1.0000 0.61920  0.48840  0.71800  Biso   1.000  C
  H233     1.0000 0.64240  0.47980  0.75250  Biso   1.000  H
  C179     1.0000 0.62460  0.55110  0.67660  Biso   1.000  C
  C180     1.0000 0.58580  0.56430  0.62770  Biso   1.000  C
  C181     1.0000 0.54750  0.51510  0.61940  Biso   1.000  C
  H234     1.0000 0.52190  0.52440  0.58570  Biso   1.000  H
  C182     1.0000 0.54730  0.45290  0.66050  Biso   1.000  C
  C183     1.0000 0.67560  0.60000  0.68320  Biso   1.000  C
  H235     1.0000 0.70130  0.61410  0.64560  Biso   1.000  H
  C184     1.0000 0.63100  0.67050  0.69860  Biso   1.000  C
  C185     1.0000 0.55940  0.67960  0.72720  Biso   1.000  C
  H236     1.0000 0.53640  0.63980  0.73660  Biso   1.000  H
  C186     1.0000 0.52010  0.74390  0.74260  Biso   1.000  C
  C187     1.0000 0.55290  0.80200  0.72750  Biso   1.000  C
  C188     1.0000 0.62580  0.79520  0.70090  Biso   1.000  C
  H237     1.0000 0.64840  0.83520  0.69200  Biso   1.000  H
  C189     1.0000 0.66470  0.72980  0.68760  Biso   1.000  C
  C190     1.0000 0.44380  0.75000  0.77750  Biso   1.000  C
  H238     1.0000 0.41050  0.79990  0.76250  Biso   1.000  H
  C191     1.0000 0.40120  0.69650  0.77080  Biso   1.000  C
  C192     1.0000 0.39930  0.63280  0.81090  Biso   1.000  C
  H239     1.0000 0.42680  0.62230  0.84380  Biso   1.000  H
  C193     1.0000 0.35970  0.58360  0.80560  Biso   1.000  C
  C194     1.0000 0.32390  0.59730  0.75540  Biso   1.000  C
  C195     1.0000 0.32530  0.65890  0.71390  Biso   1.000  C
  H240     1.0000 0.30110  0.66710  0.67980  Biso   1.000  H
  C196     1.0000 0.36230  0.70940  0.72170  Biso   1.000  C
  C197     1.0000 0.35150  0.51680  0.85120  Biso   1.000  C
  H241     1.0000 0.29570  0.51790  0.85510  Biso   1.000  H
  C198     1.0000 0.39390  0.44640  0.83360  Biso   1.000  C
  C199     1.0000 0.46410  0.43800  0.80480  Biso   1.000  C
  H242     1.0000 0.48740  0.47770  0.79610  Biso   1.000  H
  C200     1.0000 0.50280  0.37430  0.78790  Biso   1.000  C
  C201     1.0000 0.46820  0.31570  0.80310  Biso   1.000  C
  C202     1.0000 0.39880  0.32180  0.83300  Biso   1.000  C
  H243     1.0000 0.37660  0.28140  0.84330  Biso   1.000  H
  C203     1.0000 0.36180  0.38540  0.84790  Biso   1.000  C
  C204     1.0000 0.57900  0.36930  0.75500  Biso   1.000  C
  H244     1.0000 0.58520  0.33020  0.73430  Biso   1.000  H
  C205     1.0000 0.49850  0.40220  0.59790  Biso   1.000  C
  H245     1.0000 0.48040  0.35950  0.59800  Biso   1.000  H
  H246     1.0000 0.45900  0.44680  0.58320  Biso   1.000  H
  H247     1.0000 0.54570  0.40150  0.57430  Biso   1.000  H
  C206     1.0000 0.77620  0.77290  0.65150  Biso   1.000  C
  H248     1.0000 0.78820  0.77880  0.68750  Biso   1.000  H
  H249     1.0000 0.82400  0.75830  0.62980  Biso   1.000  H
  H250     1.0000 0.74460  0.81920  0.63070  Biso   1.000  H
  C207     1.0000 0.32150  0.78980  0.63470  Biso   1.000  C
  H251     1.0000 0.26970  0.78370  0.64600  Biso   1.000  H
  H252     1.0000 0.31820  0.84030  0.61430  Biso   1.000  H
  H253     1.0000 0.34670  0.75680  0.61030  Biso   1.000  H
  C208     1.0000 0.24920  0.34280  0.87960  Biso   1.000  C
  H254     1.0000 0.27410  0.29860  0.90660  Biso   1.000  H
  H255     1.0000 0.19600  0.36090  0.89260  Biso   1.000  H
  H256     1.0000 0.24960  0.33130  0.84310  Biso   1.000  H
  C209     1.0000 0.58250  0.62890  0.52900  Biso   1.000  C
  H257     1.0000 0.63450  0.60850  0.51370  Biso   1.000  H
  H258     1.0000 0.54890  0.59820  0.52550  Biso   1.000  H
  C210     1.0000 0.55070  0.70720  0.49620  Biso   1.000  C
  H259     1.0000 0.53710  0.70550  0.45900  Biso   1.000  H
  H260     1.0000 0.50250  0.72850  0.51590  Biso   1.000  H
  C211     1.0000 0.60910  0.78250  0.55610  Biso   1.000  C
  H261     1.0000 0.64290  0.81470  0.55590  Biso   1.000  H
  H262     1.0000 0.63030  0.73510  0.58210  Biso   1.000  H
  C212     1.0000 0.53060  0.81590  0.57780  Biso   1.000  C
  H263     1.0000 0.49180  0.79500  0.56740  Biso   1.000  H
  H264     1.0000 0.52890  0.80810  0.61910  Biso   1.000  H
  H265     1.0000 0.51060  0.77450  0.59980  Biso   1.000  H
  H266     1.0000 0.53860  0.84220  0.60510  Biso   1.000  H
  C213     1.0000 0.41960  0.94690  0.56360  Biso   1.000  C
  H267     1.0000 0.38990  0.91560  0.55510  Biso   1.000  H
  H268     1.0000 0.39980  0.99670  0.54050  Biso   1.000  H
  H269     1.0000 0.37140  0.97670  0.54540  Biso   1.000  H
  H270     1.0000 0.45780  0.97580  0.55010  Biso   1.000  H
  C214     1.0000 0.40350  0.94940  0.62510  Biso   1.000  C
  H271     1.0000 0.34730  0.95940  0.63330  Biso   1.000  H
  H272     1.0000 0.42740  0.90080  0.64860  Biso   1.000  H
  C215     1.0000 0.53620  0.97100  0.66920  Biso   1.000  C
  H273     1.0000 0.56630  0.00750  0.66430  Biso   1.000  H
  H274     1.0000 0.56120  0.93720  0.64490  Biso   1.000  H
  C216     1.0000 0.53970  0.92870  0.72880  Biso   1.000  C
  H275     1.0000 0.51190  0.96190  0.75280  Biso   1.000  H
  H276     1.0000 0.59410  0.91170  0.73910  Biso   1.000  H
  C217     1.0000 0.21110  0.57350  0.73310  Biso   1.000  C
  H277     1.0000 0.18070  0.59680  0.76250  Biso   1.000  H
  H278     1.0000 0.20640  0.61050  0.69720  Biso   1.000  H
  C218     1.0000 0.18160  0.51050  0.72820  Biso   1.000  C
  H279     1.0000 0.20490  0.46720  0.75740  Biso   1.000  H
  H280     1.0000 0.12540  0.52260  0.73630  Biso   1.000  H
  C219     1.0000 0.30400  0.45120  0.65600  Biso   1.000  C
  H281     1.0000 0.32770  0.49200  0.65250  Biso   1.000  H
  H282     1.0000 0.31810  0.43310  0.62130  Biso   1.000  H
  C220     1.0000 0.33800  0.39060  0.70470  Biso   1.000  C
  H283     1.0000 0.39460  0.37790  0.69880  Biso   1.000  H
  H284     1.0000 0.32580  0.40950  0.73910  Biso   1.000  H
  C221     1.0000 0.35930  0.26420  0.66260  Biso   1.000  C
  H285     1.0000 0.35870  0.30210  0.62740  Biso   1.000  H
  H286     1.0000 0.33260  0.22930  0.65640  Biso   1.000  H
  C222     1.0000 0.44180  0.22420  0.67520  Biso   1.000  C
  H287     1.0000 0.47020  0.21410  0.64030  Biso   1.000  H
  H288     1.0000 0.46620  0.25570  0.68910  Biso   1.000  H
  C223     1.0000 0.52240  0.13390  0.77340  Biso   1.000  C
  H289     1.0000 0.56780  0.14440  0.75010  Biso   1.000  H
  H290     1.0000 0.53830  0.08340  0.79620  Biso   1.000  H
  C224     1.0000 0.49920  0.18550  0.81270  Biso   1.000  C
  H291     1.0000 0.53460  0.16910  0.84380  Biso   1.000  H
  H292     1.0000 0.44640  0.18640  0.82870  Biso   1.000  H
  C225     1.0000 0.73910  0.56030  0.72330  Biso   1.000  C
  H293     1.0000 0.76600  0.59590  0.72810  Biso   1.000  H
  H294     1.0000 0.71570  0.54140  0.76020  Biso   1.000  H
  C226     1.0000 0.79860  0.49690  0.70550  Biso   1.000  C
  H295     1.0000 0.83450  0.47170  0.73540  Biso   1.000  H
  H296     1.0000 0.77260  0.46260  0.69820  Biso   1.000  H
  H297     1.0000 0.82700  0.51560  0.67140  Biso   1.000  H
  C227     1.0000 0.45900  0.74620  0.83790  Biso   1.000  C
  H298     1.0000 0.48500  0.69530  0.85590  Biso   1.000  H
  H299     1.0000 0.49430  0.77690  0.83770  Biso   1.000  H
  C228     1.0000 0.38590  0.77170  0.87260  Biso   1.000  C
  H300     1.0000 0.39940  0.76950  0.91040  Biso   1.000  H
  H301     1.0000 0.35970  0.82200  0.85490  Biso   1.000  H
  H302     1.0000 0.35180  0.73990  0.87470  Biso   1.000  H
  C229     1.0000 0.37550  0.51520  0.90940  Biso   1.000  C
  H303     1.0000 0.37640  0.46670  0.93410  Biso   1.000  H
  H304     1.0000 0.42850  0.52110  0.90580  Biso   1.000  H
  C230     1.0000 0.32320  0.57410  0.93760  Biso   1.000  C
  H305     1.0000 0.33910  0.56580  0.97590  Biso   1.000  H
  H306     1.0000 0.32750  0.62240  0.91630  Biso   1.000  H
  H307     1.0000 0.26980  0.57140  0.93870  Biso   1.000  H
  C231     1.0000 0.64530  0.34290  0.79640  Biso   1.000  C
  H308     1.0000 0.63730  0.37740  0.82100  Biso   1.000  H
  H309     1.0000 0.69460  0.34370  0.77470  Biso   1.000  H
  C232     1.0000 0.65120  0.26650  0.83270  Biso   1.000  C
  H310     1.0000 0.60300  0.26540  0.85480  Biso   1.000  H
  H311     1.0000 0.66090  0.23170  0.80880  Biso   1.000  H
  H312     1.0000 0.69360  0.25330  0.85800  Biso   1.000  H
  Ag9      1.0000 0.33030  0.13740  0.81310  Biso   1.000  Ag
  Ag10     1.0000 0.51780  0.87780  0.43660  Biso   1.000  Ag
  Ag11     1.0000 0.16760  0.36040  0.71070  Biso   1.000  Ag
  S25      1.0000 0.44710  0.88090  0.53400  Biso   1.000  S
  F13      1.0000 0.33400  0.83200  0.35000  Biso   1.000  F
  F14      1.0000 0.30900  0.76050  0.43300  Biso   1.000  F
  F15      1.0000 0.24960  0.87900  0.39700  Biso   1.000  F
  Ag12     1.0000 0.16929  0.35854  0.67771  Biso   1.000  Ag
  S26      1.0000 0.51318  0.91568  0.54315  Biso   1.000  S
  Ag13     1.0000 0.32645  0.13765  0.78352  Biso   1.000  Ag
  Ag14     1.0000 0.52539  0.89739  0.44242  Biso   1.000  Ag
  F16      1.0000 0.28150  0.88800  0.36920  Biso   1.000  F
  F17      1.0000 0.35430  0.77180  0.38500  Biso   1.000  F
  F18      1.0000 0.26390  0.81160  0.44550  Biso   1.000  F
