data_image0
_cell_length_a       7.2055
_cell_length_b       10.5292
_cell_length_c       13.3705
_cell_angle_alpha    79.615
_cell_angle_beta     75.18
_cell_angle_gamma    75.853

_symmetry_space_group_name_H-M    "P 1"
_symmetry_int_tables_number       1

loop_
  _symmetry_equiv_pos_as_xyz
  'x, y, z'

loop_
  _atom_site_label
  _atom_site_occupancy
  _atom_site_fract_x
  _atom_site_fract_y
  _atom_site_fract_z
  _atom_site_thermal_displace_type
  _atom_site_B_iso_or_equiv
  _atom_site_type_symbol
  Zn1      1.0000 0.65812  0.51568  0.61024  Biso   1.000  Zn
  O1       1.0000 0.38976  0.51379  0.68238  Biso   1.000  O
  O2       1.0000 0.11818  0.44037  0.75776  Biso   1.000  O
  O3       1.0000 0.44760  0.39382  0.89739  Biso   1.000  O
  O4       1.0000 0.34640  0.22199  0.00473  Biso   1.000  O
  O5       1.0000 0.32726  0.38573  0.52671  Biso   1.000  O
  O6       1.0000 0.51990  0.20965  0.45581  Biso   1.000  O
  O7       1.0000 0.86220  0.19180  0.88741  Biso   1.000  O
  N1       1.0000 0.83850  0.33927  0.58856  Biso   1.000  N
  N2       1.0000 0.04340  0.05934  0.76484  Biso   1.000  N
  H1       1.0000 0.12330  0.98470  0.75630  Biso   1.000  H
  C1       1.0000 0.40390  0.27683  0.72537  Biso   1.000  C
  C2       1.0000 0.45610  0.20507  0.63964  Biso   1.000  C
  C3       1.0000 0.53660  0.07004  0.65191  Biso   1.000  C
  H2       1.0000 0.57140  0.02330  0.59480  Biso   1.000  H
  C4       1.0000 0.56530  0.00486  0.74809  Biso   1.000  C
  H3       1.0000 0.61800  0.91470  0.75580  Biso   1.000  H
  C5       1.0000 0.51500  0.07501  0.83291  Biso   1.000  C
  H4       1.0000 0.53380  0.03130  0.89760  Biso   1.000  H
  C6       1.0000 0.43690  0.20987  0.82229  Biso   1.000  C
  C7       1.0000 0.29800  0.42115  0.71966  Biso   1.000  C
  C8       1.0000 0.40550  0.28128  0.91536  Biso   1.000  C
  C9       1.0000 0.43400  0.26937  0.53192  Biso   1.000  C
  C10      1.0000 0.88030  0.26459  0.67596  Biso   1.000  C
  H5       1.0000 0.82620  0.29740  0.73950  Biso   1.000  H
  C11      1.0000 0.00170  0.14008  0.67426  Biso   1.000  C
  C12      1.0000 0.08570  0.09455  0.57779  Biso   1.000  C
  H6       1.0000 0.17010  0.01240  0.57350  Biso   1.000  H
  C13      1.0000 0.04220  0.17284  0.48850  Biso   1.000  C
  H7       1.0000 0.09730  0.14360  0.42360  Biso   1.000  H
  C14      1.0000 0.91650  0.29459  0.49614  Biso   1.000  C
  H8       1.0000 0.88570  0.34630  0.43610  Biso   1.000  H
  C15      1.0000 0.97080  0.08673  0.86449  Biso   1.000  C
  C16      1.0000 0.02830  0.97688  0.94669  Biso   1.000  C
  H9       1.0000 0.16900  0.94350  0.92880  Biso   1.000  H
  H10      1.0000 0.96430  0.90520  0.94860  Biso   1.000  H
  Zn2      1.0000 0.34188  0.48432  0.38976  Biso   1.000  Zn
  O8       1.0000 0.61024  0.48621  0.31762  Biso   1.000  O
  O9       1.0000 0.88182  0.55963  0.24224  Biso   1.000  O
  O10      1.0000 0.55240  0.60618  0.10261  Biso   1.000  O
  O11      1.0000 0.65360  0.77801  0.99527  Biso   1.000  O
  O12      1.0000 0.67274  0.61427  0.47329  Biso   1.000  O
  O13      1.0000 0.48010  0.79035  0.54419  Biso   1.000  O
  O14      1.0000 0.13780  0.80820  0.11259  Biso   1.000  O
  N3       1.0000 0.16150  0.66073  0.41144  Biso   1.000  N
  N4       1.0000 0.95660  0.94066  0.23516  Biso   1.000  N
  H11      1.0000 0.87670  0.01530  0.24370  Biso   1.000  H
  C17      1.0000 0.59610  0.72317  0.27463  Biso   1.000  C
  C18      1.0000 0.54390  0.79493  0.36036  Biso   1.000  C
  C19      1.0000 0.46340  0.92996  0.34809  Biso   1.000  C
  H12      1.0000 0.42860  0.97670  0.40520  Biso   1.000  H
  C20      1.0000 0.43470  0.99514  0.25191  Biso   1.000  C
  H13      1.0000 0.38200  0.08530  0.24420  Biso   1.000  H
  C21      1.0000 0.48500  0.92499  0.16709  Biso   1.000  C
  H14      1.0000 0.46620  0.96870  0.10240  Biso   1.000  H
  C22      1.0000 0.56310  0.79013  0.17771  Biso   1.000  C
  C23      1.0000 0.70200  0.57885  0.28034  Biso   1.000  C
  C24      1.0000 0.59450  0.71872  0.08464  Biso   1.000  C
  C25      1.0000 0.56600  0.73063  0.46808  Biso   1.000  C
  C26      1.0000 0.11970  0.73541  0.32404  Biso   1.000  C
  H15      1.0000 0.17380  0.70260  0.26050  Biso   1.000  H
  C27      1.0000 0.99830  0.85992  0.32574  Biso   1.000  C
  C28      1.0000 0.91430  0.90545  0.42221  Biso   1.000  C
  H16      1.0000 0.82990  0.98760  0.42650  Biso   1.000  H
  C29      1.0000 0.95780  0.82716  0.51150  Biso   1.000  C
  H17      1.0000 0.90270  0.85640  0.57640  Biso   1.000  H
  C30      1.0000 0.08350  0.70541  0.50386  Biso   1.000  C
  H18      1.0000 0.11430  0.65370  0.56390  Biso   1.000  H
  C31      1.0000 0.02920  0.91327  0.13551  Biso   1.000  C
  C32      1.0000 0.97170  0.02312  0.05331  Biso   1.000  C
  H19      1.0000 0.83100  0.05650  0.07120  Biso   1.000  H
  H20      1.0000 0.03570  0.09480  0.05140  Biso   1.000  H
  Zn3      1.0000 0.50000  0.50000  0.00000  Biso   1.000  Zn
