data_image0
_cell_length_a       10.2536
_cell_length_b       19.8774
_cell_length_c       14.8763
_cell_angle_alpha    90
_cell_angle_beta     90
_cell_angle_gamma    90

_symmetry_space_group_name_H-M    "P 1"
_symmetry_int_tables_number       1

loop_
  _symmetry_equiv_pos_as_xyz
  'x, y, z'

loop_
  _atom_site_label
  _atom_site_occupancy
  _atom_site_fract_x
  _atom_site_fract_y
  _atom_site_fract_z
  _atom_site_thermal_displace_type
  _atom_site_B_iso_or_equiv
  _atom_site_type_symbol
  O1       1.0000 0.77327  0.82123  0.67123  Biso   1.000  O
  O2       1.0000 0.97466  0.85410  0.63369  Biso   1.000  O
  N1       1.0000 0.63980  0.17974  0.34854  Biso   1.000  N
  N2       1.0000 0.55867  0.19038  0.41961  Biso   1.000  N
  C1       1.0000 0.70220  0.12233  0.36691  Biso   1.000  C
  H1       1.0000 0.76650  0.10250  0.32930  Biso   1.000  H
  C2       1.0000 0.67890  0.94659  0.60605  Biso   1.000  C
  H2       1.0000 0.62880  0.92680  0.65280  Biso   1.000  H
  C3       1.0000 0.79730  0.91759  0.58048  Biso   1.000  C
  C4       1.0000 0.66010  0.09524  0.44922  Biso   1.000  C
  C5       1.0000 0.56800  0.14108  0.48090  Biso   1.000  C
  H3       1.0000 0.52060  0.13800  0.53560  Biso   1.000  H
  C6       1.0000 0.70460  0.03310  0.49308  Biso   1.000  C
  C7       1.0000 0.63460  0.00407  0.56337  Biso   1.000  C
  H4       1.0000 0.55500  0.02410  0.58230  Biso   1.000  H
  C8       1.0000 0.85410  0.85966  0.63224  Biso   1.000  C
  C9       1.0000 0.82010  0.00201  0.46500  Biso   1.000  C
  H5       1.0000 0.86730  0.01970  0.41530  Biso   1.000  H
  C10      1.0000 0.86570  0.94549  0.50950  Biso   1.000  C
  H6       1.0000 0.94540  0.92550  0.49090  Biso   1.000  H
  O3       1.0000 0.72673  0.17877  0.17123  Biso   1.000  O
  O4       1.0000 0.52534  0.14590  0.13369  Biso   1.000  O
  N3       1.0000 0.86020  0.82026  0.84854  Biso   1.000  N
  N4       1.0000 0.94133  0.80962  0.91961  Biso   1.000  N
  C11      1.0000 0.79780  0.87767  0.86691  Biso   1.000  C
  H7       1.0000 0.73350  0.89750  0.82930  Biso   1.000  H
  C12      1.0000 0.82110  0.05341  0.10605  Biso   1.000  C
  H8       1.0000 0.87120  0.07320  0.15280  Biso   1.000  H
  C13      1.0000 0.70270  0.08241  0.08048  Biso   1.000  C
  C14      1.0000 0.83990  0.90476  0.94922  Biso   1.000  C
  C15      1.0000 0.93200  0.85892  0.98090  Biso   1.000  C
  H9       1.0000 0.97940  0.86200  0.03560  Biso   1.000  H
  C16      1.0000 0.79540  0.96690  0.99308  Biso   1.000  C
  C17      1.0000 0.86540  0.99593  0.06337  Biso   1.000  C
  H10      1.0000 0.94500  0.97590  0.08230  Biso   1.000  H
  C18      1.0000 0.64590  0.14034  0.13224  Biso   1.000  C
  C19      1.0000 0.67990  0.99799  0.96500  Biso   1.000  C
  H11      1.0000 0.63270  0.98030  0.91530  Biso   1.000  H
  C20      1.0000 0.63430  0.05451  0.00950  Biso   1.000  C
  H12      1.0000 0.55460  0.07450  0.99090  Biso   1.000  H
  O5       1.0000 0.77327  0.67877  0.67123  Biso   1.000  O
  O6       1.0000 0.97466  0.64590  0.63369  Biso   1.000  O
  N5       1.0000 0.63980  0.32026  0.34854  Biso   1.000  N
  N6       1.0000 0.55867  0.30962  0.41961  Biso   1.000  N
  C21      1.0000 0.70220  0.37767  0.36691  Biso   1.000  C
  H13      1.0000 0.76650  0.39750  0.32930  Biso   1.000  H
  C22      1.0000 0.67890  0.55341  0.60605  Biso   1.000  C
  H14      1.0000 0.62880  0.57320  0.65280  Biso   1.000  H
  C23      1.0000 0.79730  0.58241  0.58048  Biso   1.000  C
  C24      1.0000 0.66010  0.40476  0.44922  Biso   1.000  C
  C25      1.0000 0.56800  0.35892  0.48090  Biso   1.000  C
  H15      1.0000 0.52060  0.36200  0.53560  Biso   1.000  H
  C26      1.0000 0.70460  0.46690  0.49308  Biso   1.000  C
  C27      1.0000 0.63460  0.49593  0.56337  Biso   1.000  C
  H16      1.0000 0.55500  0.47590  0.58230  Biso   1.000  H
  C28      1.0000 0.85410  0.64034  0.63224  Biso   1.000  C
  C29      1.0000 0.82010  0.49799  0.46500  Biso   1.000  C
  H17      1.0000 0.86730  0.48030  0.41530  Biso   1.000  H
  C30      1.0000 0.86570  0.55451  0.50950  Biso   1.000  C
  H18      1.0000 0.94540  0.57450  0.49090  Biso   1.000  H
  O7       1.0000 0.72673  0.32123  0.17123  Biso   1.000  O
  O8       1.0000 0.52534  0.35410  0.13369  Biso   1.000  O
  N7       1.0000 0.86020  0.67974  0.84854  Biso   1.000  N
  N8       1.0000 0.94133  0.69038  0.91961  Biso   1.000  N
  C31      1.0000 0.79780  0.62233  0.86691  Biso   1.000  C
  H19      1.0000 0.73350  0.60250  0.82930  Biso   1.000  H
  C32      1.0000 0.82110  0.44659  0.10605  Biso   1.000  C
  H20      1.0000 0.87120  0.42680  0.15280  Biso   1.000  H
  C33      1.0000 0.70270  0.41759  0.08048  Biso   1.000  C
  C34      1.0000 0.83990  0.59524  0.94922  Biso   1.000  C
  C35      1.0000 0.93200  0.64108  0.98090  Biso   1.000  C
  H21      1.0000 0.97940  0.63800  0.03560  Biso   1.000  H
  C36      1.0000 0.79540  0.53310  0.99308  Biso   1.000  C
  C37      1.0000 0.86540  0.50407  0.06337  Biso   1.000  C
  H22      1.0000 0.94500  0.52410  0.08230  Biso   1.000  H
  C38      1.0000 0.64590  0.35966  0.13224  Biso   1.000  C
  C39      1.0000 0.67990  0.50201  0.96500  Biso   1.000  C
  H23      1.0000 0.63270  0.51970  0.91530  Biso   1.000  H
  C40      1.0000 0.63430  0.44549  0.00950  Biso   1.000  C
  H24      1.0000 0.55460  0.42550  0.99090  Biso   1.000  H
  Cu1      1.0000 0.68572  0.25000  0.25668  Biso   1.000  Cu
  C41      1.0000 0.47700  0.25000  0.42030  Biso   1.000  C
  H25      1.0000 0.41950  0.25000  0.36680  Biso   1.000  H
  H26      1.0000 0.42140  0.25000  0.47470  Biso   1.000  H
  Cu2      1.0000 0.81428  0.75000  0.75668  Biso   1.000  Cu
  C42      1.0000 0.02300  0.75000  0.92030  Biso   1.000  C
  H27      1.0000 0.08050  0.75000  0.86680  Biso   1.000  H
  H28      1.0000 0.07860  0.75000  0.97470  Biso   1.000  H
  O9       1.0000 0.22673  0.32123  0.32877  Biso   1.000  O
  O10      1.0000 0.02534  0.35410  0.36631  Biso   1.000  O
  N9       1.0000 0.36020  0.67974  0.65146  Biso   1.000  N
  N10      1.0000 0.44133  0.69038  0.58039  Biso   1.000  N
  C43      1.0000 0.29780  0.62233  0.63309  Biso   1.000  C
  H29      1.0000 0.23350  0.60250  0.67070  Biso   1.000  H
  C44      1.0000 0.32110  0.44659  0.39395  Biso   1.000  C
  H30      1.0000 0.37120  0.42680  0.34720  Biso   1.000  H
  C45      1.0000 0.20270  0.41759  0.41952  Biso   1.000  C
  C46      1.0000 0.33990  0.59524  0.55078  Biso   1.000  C
  C47      1.0000 0.43200  0.64108  0.51910  Biso   1.000  C
  H31      1.0000 0.47940  0.63800  0.46440  Biso   1.000  H
  C48      1.0000 0.29540  0.53310  0.50692  Biso   1.000  C
  C49      1.0000 0.36540  0.50407  0.43663  Biso   1.000  C
  H32      1.0000 0.44500  0.52410  0.41770  Biso   1.000  H
  C50      1.0000 0.14590  0.35966  0.36776  Biso   1.000  C
  C51      1.0000 0.17990  0.50201  0.53500  Biso   1.000  C
  H33      1.0000 0.13270  0.51970  0.58470  Biso   1.000  H
  C52      1.0000 0.13430  0.44549  0.49050  Biso   1.000  C
  H34      1.0000 0.05460  0.42550  0.50910  Biso   1.000  H
  O11      1.0000 0.27327  0.67877  0.82877  Biso   1.000  O
  O12      1.0000 0.47466  0.64590  0.86631  Biso   1.000  O
  N11      1.0000 0.13980  0.32026  0.15146  Biso   1.000  N
  N12      1.0000 0.05867  0.30962  0.08039  Biso   1.000  N
  C53      1.0000 0.20220  0.37767  0.13309  Biso   1.000  C
  H35      1.0000 0.26650  0.39750  0.17070  Biso   1.000  H
  C54      1.0000 0.17890  0.55341  0.89395  Biso   1.000  C
  H36      1.0000 0.12880  0.57320  0.84720  Biso   1.000  H
  C55      1.0000 0.29730  0.58241  0.91952  Biso   1.000  C
  C56      1.0000 0.16010  0.40476  0.05078  Biso   1.000  C
  C57      1.0000 0.06800  0.35892  0.01910  Biso   1.000  C
  H37      1.0000 0.02060  0.36200  0.96440  Biso   1.000  H
  C58      1.0000 0.20460  0.46690  0.00692  Biso   1.000  C
  C59      1.0000 0.13460  0.49593  0.93663  Biso   1.000  C
  H38      1.0000 0.05500  0.47590  0.91770  Biso   1.000  H
  C60      1.0000 0.35410  0.64034  0.86776  Biso   1.000  C
  C61      1.0000 0.32010  0.49799  0.03500  Biso   1.000  C
  H39      1.0000 0.36730  0.48030  0.08470  Biso   1.000  H
  C62      1.0000 0.36570  0.55451  0.99050  Biso   1.000  C
  H40      1.0000 0.44540  0.57450  0.00910  Biso   1.000  H
  O13      1.0000 0.22673  0.17877  0.32877  Biso   1.000  O
  O14      1.0000 0.02534  0.14590  0.36631  Biso   1.000  O
  N13      1.0000 0.36020  0.82026  0.65146  Biso   1.000  N
  N14      1.0000 0.44133  0.80962  0.58039  Biso   1.000  N
  C63      1.0000 0.29780  0.87767  0.63309  Biso   1.000  C
  H41      1.0000 0.23350  0.89750  0.67070  Biso   1.000  H
  C64      1.0000 0.32110  0.05341  0.39395  Biso   1.000  C
  H42      1.0000 0.37120  0.07320  0.34720  Biso   1.000  H
  C65      1.0000 0.20270  0.08241  0.41952  Biso   1.000  C
  C66      1.0000 0.33990  0.90476  0.55078  Biso   1.000  C
  C67      1.0000 0.43200  0.85892  0.51910  Biso   1.000  C
  H43      1.0000 0.47940  0.86200  0.46440  Biso   1.000  H
  C68      1.0000 0.29540  0.96690  0.50692  Biso   1.000  C
  C69      1.0000 0.36540  0.99593  0.43663  Biso   1.000  C
  H44      1.0000 0.44500  0.97590  0.41770  Biso   1.000  H
  C70      1.0000 0.14590  0.14034  0.36776  Biso   1.000  C
  C71      1.0000 0.17990  0.99799  0.53500  Biso   1.000  C
  H45      1.0000 0.13270  0.98030  0.58470  Biso   1.000  H
  C72      1.0000 0.13430  0.05451  0.49050  Biso   1.000  C
  H46      1.0000 0.05460  0.07450  0.50910  Biso   1.000  H
  O15      1.0000 0.27327  0.82123  0.82877  Biso   1.000  O
  O16      1.0000 0.47466  0.85410  0.86631  Biso   1.000  O
  N15      1.0000 0.13980  0.17974  0.15146  Biso   1.000  N
  N16      1.0000 0.05867  0.19038  0.08039  Biso   1.000  N
  C73      1.0000 0.20220  0.12233  0.13309  Biso   1.000  C
  H47      1.0000 0.26650  0.10250  0.17070  Biso   1.000  H
  C74      1.0000 0.17890  0.94659  0.89395  Biso   1.000  C
  H48      1.0000 0.12880  0.92680  0.84720  Biso   1.000  H
  C75      1.0000 0.29730  0.91759  0.91952  Biso   1.000  C
  C76      1.0000 0.16010  0.09524  0.05078  Biso   1.000  C
  C77      1.0000 0.06800  0.14108  0.01910  Biso   1.000  C
  H49      1.0000 0.02060  0.13800  0.96440  Biso   1.000  H
  C78      1.0000 0.20460  0.03310  0.00692  Biso   1.000  C
  C79      1.0000 0.13460  0.00407  0.93663  Biso   1.000  C
  H50      1.0000 0.05500  0.02410  0.91770  Biso   1.000  H
  C80      1.0000 0.35410  0.85966  0.86776  Biso   1.000  C
  C81      1.0000 0.32010  0.00201  0.03500  Biso   1.000  C
  H51      1.0000 0.36730  0.01970  0.08470  Biso   1.000  H
  C82      1.0000 0.36570  0.94549  0.99050  Biso   1.000  C
  H52      1.0000 0.44540  0.92550  0.00910  Biso   1.000  H
  Cu3      1.0000 0.31428  0.75000  0.74332  Biso   1.000  Cu
  C83      1.0000 0.52300  0.75000  0.57970  Biso   1.000  C
  H53      1.0000 0.58050  0.75000  0.63320  Biso   1.000  H
  H54      1.0000 0.57860  0.75000  0.52530  Biso   1.000  H
  Cu4      1.0000 0.18572  0.25000  0.24332  Biso   1.000  Cu
  C84      1.0000 0.97700  0.25000  0.07970  Biso   1.000  C
  H55      1.0000 0.91950  0.25000  0.13320  Biso   1.000  H
  H56      1.0000 0.92140  0.25000  0.02530  Biso   1.000  H
