data_image0
_cell_length_a       17.8204
_cell_length_b       9.9753
_cell_length_c       15.6487
_cell_angle_alpha    90
_cell_angle_beta     90
_cell_angle_gamma    90

_symmetry_space_group_name_H-M    "P 1"
_symmetry_int_tables_number       1

loop_
  _symmetry_equiv_pos_as_xyz
  'x, y, z'

loop_
  _atom_site_label
  _atom_site_occupancy
  _atom_site_fract_x
  _atom_site_fract_y
  _atom_site_fract_z
  _atom_site_thermal_displace_type
  _atom_site_B_iso_or_equiv
  _atom_site_type_symbol
  Mg1      1.0000 0.89155  0.32544  0.14500  Biso   1.000  Mg
  Mg2      1.0000 0.61029  0.32836  0.64168  Biso   1.000  Mg
  O1       1.0000 0.81842  0.20934  0.21257  Biso   1.000  O
  O2       1.0000 0.75883  0.35323  0.30015  Biso   1.000  O
  C1       1.0000 0.76228  0.24990  0.25513  Biso   1.000  C
  C2       1.0000 0.69243  0.16260  0.24721  Biso   1.000  C
  H1       1.0000 0.67360  0.16550  0.18770  Biso   1.000  H
  H2       1.0000 0.70520  0.06850  0.26110  Biso   1.000  H
  O3       1.0000 0.60710  0.20900  0.53568  Biso   1.000  O
  O4       1.0000 0.57347  0.35482  0.43319  Biso   1.000  O
  C3       1.0000 0.60382  0.24950  0.45962  Biso   1.000  C
  C4       1.0000 0.64233  0.15880  0.39512  Biso   1.000  C
  H3       1.0000 0.69640  0.15240  0.40890  Biso   1.000  H
  H4       1.0000 0.62060  0.06760  0.39860  Biso   1.000  H
  O5       1.0000 0.47607  0.30606  0.17318  Biso   1.000  O
  O6       1.0000 0.58678  0.39565  0.20346  Biso   1.000  O
  C5       1.0000 0.53873  0.30760  0.21077  Biso   1.000  C
  C6       1.0000 0.55538  0.19200  0.27208  Biso   1.000  C
  H5       1.0000 0.51840  0.19130  0.31930  Biso   1.000  H
  H6       1.0000 0.55210  0.10530  0.24150  Biso   1.000  H
  N1       1.0000 0.63297  0.21180  0.30672  Biso   1.000  N
  H7       1.0000 0.63900  0.30100  0.30600  Biso   1.000  H
  O7       1.0000 0.53871  0.19422  0.69850  Biso   1.000  O
  O8       1.0000 0.42305  0.11161  0.71315  Biso   1.000  O
  C7       1.0000 0.47171  0.19820  0.72570  Biso   1.000  C
  C8       1.0000 0.45049  0.31830  0.78056  Biso   1.000  C
  H8       1.0000 0.48310  0.32270  0.83170  Biso   1.000  H
  H9       1.0000 0.45680  0.40230  0.74760  Biso   1.000  H
  O9       1.0000 0.19727  0.28767  0.68736  Biso   1.000  O
  O10      1.0000 0.24558  0.16330  0.79350  Biso   1.000  O
  C9       1.0000 0.24719  0.25850  0.74132  Biso   1.000  C
  C10      1.0000 0.31599  0.34800  0.74014  Biso   1.000  C
  H10      1.0000 0.34000  0.34440  0.68310  Biso   1.000  H
  H11      1.0000 0.30110  0.44200  0.75160  Biso   1.000  H
  O11      1.0000 0.37208  0.29129  0.03755  Biso   1.000  O
  O12      1.0000 0.41227  0.15137  0.93455  Biso   1.000  O
  C11      1.0000 0.38190  0.25690  0.96056  Biso   1.000  C
  C12      1.0000 0.35294  0.35450  0.89359  Biso   1.000  C
  H12      1.0000 0.29810  0.36610  0.90010  Biso   1.000  H
  H13      1.0000 0.37710  0.44300  0.90140  Biso   1.000  H
  N2       1.0000 0.37010  0.30170  0.80682  Biso   1.000  N
  H14      1.0000 0.36700  0.21400  0.81100  Biso   1.000  H
  Mg3      1.0000 0.39155  0.17456  0.14500  Biso   1.000  Mg
  Mg4      1.0000 0.11029  0.17164  0.64168  Biso   1.000  Mg
  O13      1.0000 0.31842  0.29066  0.21257  Biso   1.000  O
  O14      1.0000 0.25883  0.14677  0.30015  Biso   1.000  O
  C13      1.0000 0.26228  0.25010  0.25513  Biso   1.000  C
  C14      1.0000 0.19243  0.33740  0.24721  Biso   1.000  C
  H15      1.0000 0.17360  0.33450  0.18770  Biso   1.000  H
  H16      1.0000 0.20520  0.43150  0.26110  Biso   1.000  H
  O15      1.0000 0.10710  0.29100  0.53568  Biso   1.000  O
  O16      1.0000 0.07347  0.14518  0.43319  Biso   1.000  O
  C15      1.0000 0.10382  0.25050  0.45962  Biso   1.000  C
  C16      1.0000 0.14233  0.34120  0.39512  Biso   1.000  C
  H17      1.0000 0.19640  0.34760  0.40890  Biso   1.000  H
  H18      1.0000 0.12060  0.43240  0.39860  Biso   1.000  H
  O17      1.0000 0.97607  0.19394  0.17318  Biso   1.000  O
  O18      1.0000 0.08678  0.10435  0.20346  Biso   1.000  O
  C17      1.0000 0.03873  0.19240  0.21077  Biso   1.000  C
  C18      1.0000 0.05538  0.30800  0.27208  Biso   1.000  C
  H19      1.0000 0.01840  0.30870  0.31930  Biso   1.000  H
  H20      1.0000 0.05210  0.39470  0.24150  Biso   1.000  H
  N3       1.0000 0.13297  0.28820  0.30672  Biso   1.000  N
  H21      1.0000 0.13900  0.19900  0.30600  Biso   1.000  H
  O19      1.0000 0.03871  0.30578  0.69850  Biso   1.000  O
  O20      1.0000 0.92305  0.38839  0.71315  Biso   1.000  O
  C19      1.0000 0.97171  0.30180  0.72570  Biso   1.000  C
  C20      1.0000 0.95049  0.18170  0.78056  Biso   1.000  C
  H22      1.0000 0.98310  0.17730  0.83170  Biso   1.000  H
  H23      1.0000 0.95680  0.09770  0.74760  Biso   1.000  H
  O21      1.0000 0.69727  0.21233  0.68736  Biso   1.000  O
  O22      1.0000 0.74558  0.33670  0.79350  Biso   1.000  O
  C21      1.0000 0.74719  0.24150  0.74132  Biso   1.000  C
  C22      1.0000 0.81599  0.15200  0.74014  Biso   1.000  C
  H24      1.0000 0.84000  0.15560  0.68310  Biso   1.000  H
  H25      1.0000 0.80110  0.05800  0.75160  Biso   1.000  H
  O23      1.0000 0.87208  0.20871  0.03755  Biso   1.000  O
  O24      1.0000 0.91227  0.34863  0.93455  Biso   1.000  O
  C23      1.0000 0.88190  0.24310  0.96056  Biso   1.000  C
  C24      1.0000 0.85294  0.14550  0.89359  Biso   1.000  C
  H26      1.0000 0.79810  0.13390  0.90010  Biso   1.000  H
  H27      1.0000 0.87710  0.05700  0.90140  Biso   1.000  H
  N4       1.0000 0.87010  0.19830  0.80682  Biso   1.000  N
  H28      1.0000 0.86700  0.28600  0.81100  Biso   1.000  H
  Mg5      1.0000 0.10845  0.67456  0.64500  Biso   1.000  Mg
  Mg6      1.0000 0.38971  0.67164  0.14168  Biso   1.000  Mg
  O25      1.0000 0.18158  0.79066  0.71257  Biso   1.000  O
  O26      1.0000 0.24117  0.64677  0.80015  Biso   1.000  O
  C25      1.0000 0.23772  0.75010  0.75513  Biso   1.000  C
  C26      1.0000 0.30757  0.83740  0.74721  Biso   1.000  C
  H29      1.0000 0.32640  0.83450  0.68770  Biso   1.000  H
  H30      1.0000 0.29480  0.93150  0.76110  Biso   1.000  H
  O27      1.0000 0.39290  0.79100  0.03568  Biso   1.000  O
  O28      1.0000 0.42653  0.64518  0.93319  Biso   1.000  O
  C27      1.0000 0.39618  0.75050  0.95962  Biso   1.000  C
  C28      1.0000 0.35767  0.84120  0.89512  Biso   1.000  C
  H31      1.0000 0.30360  0.84760  0.90890  Biso   1.000  H
  H32      1.0000 0.37940  0.93240  0.89860  Biso   1.000  H
  O29      1.0000 0.52393  0.69394  0.67318  Biso   1.000  O
  O30      1.0000 0.41322  0.60435  0.70346  Biso   1.000  O
  C29      1.0000 0.46127  0.69240  0.71077  Biso   1.000  C
  C30      1.0000 0.44462  0.80800  0.77208  Biso   1.000  C
  H33      1.0000 0.48160  0.80870  0.81930  Biso   1.000  H
  H34      1.0000 0.44790  0.89470  0.74150  Biso   1.000  H
  N5       1.0000 0.36703  0.78820  0.80672  Biso   1.000  N
  H35      1.0000 0.36100  0.69900  0.80600  Biso   1.000  H
  O31      1.0000 0.46129  0.80578  0.19850  Biso   1.000  O
  O32      1.0000 0.57695  0.88839  0.21315  Biso   1.000  O
  C31      1.0000 0.52829  0.80180  0.22570  Biso   1.000  C
  C32      1.0000 0.54951  0.68170  0.28056  Biso   1.000  C
  H36      1.0000 0.51690  0.67730  0.33170  Biso   1.000  H
  H37      1.0000 0.54320  0.59770  0.24760  Biso   1.000  H
  O33      1.0000 0.80273  0.71233  0.18736  Biso   1.000  O
  O34      1.0000 0.75442  0.83670  0.29350  Biso   1.000  O
  C33      1.0000 0.75281  0.74150  0.24132  Biso   1.000  C
  C34      1.0000 0.68401  0.65200  0.24014  Biso   1.000  C
  H38      1.0000 0.66000  0.65560  0.18310  Biso   1.000  H
  H39      1.0000 0.69890  0.55800  0.25160  Biso   1.000  H
  O35      1.0000 0.62792  0.70871  0.53755  Biso   1.000  O
  O36      1.0000 0.58773  0.84863  0.43455  Biso   1.000  O
  C35      1.0000 0.61810  0.74310  0.46056  Biso   1.000  C
  C36      1.0000 0.64706  0.64550  0.39359  Biso   1.000  C
  H40      1.0000 0.70190  0.63390  0.40010  Biso   1.000  H
  H41      1.0000 0.62290  0.55700  0.40140  Biso   1.000  H
  N6       1.0000 0.62990  0.69830  0.30682  Biso   1.000  N
  H42      1.0000 0.63300  0.78600  0.31100  Biso   1.000  H
  Mg7      1.0000 0.60845  0.82544  0.64500  Biso   1.000  Mg
  Mg8      1.0000 0.88971  0.82836  0.14168  Biso   1.000  Mg
  O37      1.0000 0.68158  0.70934  0.71257  Biso   1.000  O
  O38      1.0000 0.74117  0.85323  0.80015  Biso   1.000  O
  C37      1.0000 0.73772  0.74990  0.75513  Biso   1.000  C
  C38      1.0000 0.80757  0.66260  0.74721  Biso   1.000  C
  H43      1.0000 0.82640  0.66550  0.68770  Biso   1.000  H
  H44      1.0000 0.79480  0.56850  0.76110  Biso   1.000  H
  O39      1.0000 0.89290  0.70900  0.03568  Biso   1.000  O
  O40      1.0000 0.92653  0.85482  0.93319  Biso   1.000  O
  C39      1.0000 0.89618  0.74950  0.95962  Biso   1.000  C
  C40      1.0000 0.85767  0.65880  0.89512  Biso   1.000  C
  H45      1.0000 0.80360  0.65240  0.90890  Biso   1.000  H
  H46      1.0000 0.87940  0.56760  0.89860  Biso   1.000  H
  O41      1.0000 0.02393  0.80606  0.67318  Biso   1.000  O
  O42      1.0000 0.91322  0.89565  0.70346  Biso   1.000  O
  C41      1.0000 0.96127  0.80760  0.71077  Biso   1.000  C
  C42      1.0000 0.94462  0.69200  0.77208  Biso   1.000  C
  H47      1.0000 0.98160  0.69130  0.81930  Biso   1.000  H
  H48      1.0000 0.94790  0.60530  0.74150  Biso   1.000  H
  N7       1.0000 0.86703  0.71180  0.80672  Biso   1.000  N
  H49      1.0000 0.86100  0.80100  0.80600  Biso   1.000  H
  O43      1.0000 0.96129  0.69422  0.19850  Biso   1.000  O
  O44      1.0000 0.07695  0.61161  0.21315  Biso   1.000  O
  C43      1.0000 0.02829  0.69820  0.22570  Biso   1.000  C
  C44      1.0000 0.04951  0.81830  0.28056  Biso   1.000  C
  H50      1.0000 0.01690  0.82270  0.33170  Biso   1.000  H
  H51      1.0000 0.04320  0.90230  0.24760  Biso   1.000  H
  O45      1.0000 0.30273  0.78767  0.18736  Biso   1.000  O
  O46      1.0000 0.25442  0.66330  0.29350  Biso   1.000  O
  C45      1.0000 0.25281  0.75850  0.24132  Biso   1.000  C
  C46      1.0000 0.18401  0.84800  0.24014  Biso   1.000  C
  H52      1.0000 0.16000  0.84440  0.18310  Biso   1.000  H
  H53      1.0000 0.19890  0.94200  0.25160  Biso   1.000  H
  O47      1.0000 0.12792  0.79129  0.53755  Biso   1.000  O
  O48      1.0000 0.08773  0.65137  0.43455  Biso   1.000  O
  C47      1.0000 0.11810  0.75690  0.46056  Biso   1.000  C
  C48      1.0000 0.14706  0.85450  0.39359  Biso   1.000  C
  H54      1.0000 0.20190  0.86610  0.40010  Biso   1.000  H
  H55      1.0000 0.12290  0.94300  0.40140  Biso   1.000  H
  N8       1.0000 0.12990  0.80170  0.30682  Biso   1.000  N
  H56      1.0000 0.13300  0.71400  0.31100  Biso   1.000  H
