data_image0
_cell_length_a       18.4978
_cell_length_b       18.4978
_cell_length_c       6.7746
_cell_angle_alpha    90
_cell_angle_beta     90
_cell_angle_gamma    120

_symmetry_space_group_name_H-M    "P 1"
_symmetry_int_tables_number       1

loop_
  _symmetry_equiv_pos_as_xyz
  'x, y, z'

loop_
  _atom_site_label
  _atom_site_occupancy
  _atom_site_fract_x
  _atom_site_fract_y
  _atom_site_fract_z
  _atom_site_thermal_displace_type
  _atom_site_B_iso_or_equiv
  _atom_site_type_symbol
  O1       1.0000 0.58836  0.02920  0.24360  Biso   1.000  O
  O2       1.0000 0.62870  0.10890  0.51140  Biso   1.000  O
  C1       1.0000 0.64040  0.09080  0.34080  Biso   1.000  C
  C2       1.0000 0.72230  0.14840  0.24390  Biso   1.000  C
  C3       1.0000 0.74050  0.12990  0.05770  Biso   1.000  C
  H1       1.0000 0.70260  0.08090  0.99400  Biso   1.000  H
  C4       1.0000 0.79430  0.09400  0.69630  Biso   1.000  C
  H2       1.0000 0.81300  0.10130  0.56020  Biso   1.000  H
  H3       1.0000 0.73490  0.07470  0.69540  Biso   1.000  H
  C5       1.0000 0.80700  0.03330  0.78300  Biso   1.000  C
  C6       1.0000 0.82040  0.98170  0.85600  Biso   1.000  C
  H4       1.0000 0.83060  0.94180  0.91230  Biso   1.000  H
  O3       1.0000 0.97080  0.55916  0.24360  Biso   1.000  O
  O4       1.0000 0.89110  0.51980  0.51140  Biso   1.000  O
  C7       1.0000 0.90920  0.54960  0.34080  Biso   1.000  C
  C8       1.0000 0.85160  0.57390  0.24390  Biso   1.000  C
  C9       1.0000 0.87010  0.61060  0.05770  Biso   1.000  C
  H5       1.0000 0.91910  0.62170  0.99400  Biso   1.000  H
  C10      1.0000 0.90600  0.70030  0.69630  Biso   1.000  C
  H6       1.0000 0.89870  0.71170  0.56020  Biso   1.000  H
  H7       1.0000 0.92530  0.66020  0.69540  Biso   1.000  H
  C11      1.0000 0.96670  0.77370  0.78300  Biso   1.000  C
  C12      1.0000 0.01830  0.83870  0.85600  Biso   1.000  C
  H8       1.0000 0.05820  0.88880  0.91230  Biso   1.000  H
  O5       1.0000 0.44084  0.41164  0.24360  Biso   1.000  O
  O6       1.0000 0.48020  0.37130  0.51140  Biso   1.000  O
  C13      1.0000 0.45040  0.35960  0.34080  Biso   1.000  C
  C14      1.0000 0.42610  0.27770  0.24390  Biso   1.000  C
  C15      1.0000 0.38940  0.25950  0.05770  Biso   1.000  C
  H9       1.0000 0.37830  0.29740  0.99400  Biso   1.000  H
  C16      1.0000 0.29970  0.20570  0.69630  Biso   1.000  C
  H10      1.0000 0.28830  0.18700  0.56020  Biso   1.000  H
  H11      1.0000 0.33980  0.26510  0.69540  Biso   1.000  H
  C17      1.0000 0.22630  0.19300  0.78300  Biso   1.000  C
  C18      1.0000 0.16130  0.17960  0.85600  Biso   1.000  C
  H12      1.0000 0.11120  0.16940  0.91230  Biso   1.000  H
  O7       1.0000 0.02920  0.58836  0.75640  Biso   1.000  O
  O8       1.0000 0.10890  0.62870  0.48860  Biso   1.000  O
  C19      1.0000 0.09080  0.64040  0.65920  Biso   1.000  C
  C20      1.0000 0.14840  0.72230  0.75610  Biso   1.000  C
  C21      1.0000 0.12990  0.74050  0.94230  Biso   1.000  C
  H13      1.0000 0.08090  0.70260  0.00600  Biso   1.000  H
  C22      1.0000 0.09400  0.79430  0.30370  Biso   1.000  C
  H14      1.0000 0.10130  0.81300  0.43980  Biso   1.000  H
  H15      1.0000 0.07470  0.73490  0.30460  Biso   1.000  H
  C23      1.0000 0.03330  0.80700  0.21700  Biso   1.000  C
  C24      1.0000 0.98170  0.82040  0.14400  Biso   1.000  C
  H16      1.0000 0.94180  0.83060  0.08770  Biso   1.000  H
  O9       1.0000 0.55916  0.97080  0.75640  Biso   1.000  O
  O10      1.0000 0.51980  0.89110  0.48860  Biso   1.000  O
  C25      1.0000 0.54960  0.90920  0.65920  Biso   1.000  C
  C26      1.0000 0.57390  0.85160  0.75610  Biso   1.000  C
  C27      1.0000 0.61060  0.87010  0.94230  Biso   1.000  C
  H17      1.0000 0.62170  0.91910  0.00600  Biso   1.000  H
  C28      1.0000 0.70030  0.90600  0.30370  Biso   1.000  C
  H18      1.0000 0.71170  0.89870  0.43980  Biso   1.000  H
  H19      1.0000 0.66020  0.92530  0.30460  Biso   1.000  H
  C29      1.0000 0.77370  0.96670  0.21700  Biso   1.000  C
  C30      1.0000 0.83870  0.01830  0.14400  Biso   1.000  C
  H20      1.0000 0.88880  0.05820  0.08770  Biso   1.000  H
  O11      1.0000 0.41164  0.44084  0.75640  Biso   1.000  O
  O12      1.0000 0.37130  0.48020  0.48860  Biso   1.000  O
  C31      1.0000 0.35960  0.45040  0.65920  Biso   1.000  C
  C32      1.0000 0.27770  0.42610  0.75610  Biso   1.000  C
  C33      1.0000 0.25950  0.38940  0.94230  Biso   1.000  C
  H21      1.0000 0.29740  0.37830  0.00600  Biso   1.000  H
  C34      1.0000 0.20570  0.29970  0.30370  Biso   1.000  C
  H22      1.0000 0.18700  0.28830  0.43980  Biso   1.000  H
  H23      1.0000 0.26510  0.33980  0.30460  Biso   1.000  H
  C35      1.0000 0.19300  0.22630  0.21700  Biso   1.000  C
  C36      1.0000 0.17960  0.16130  0.14400  Biso   1.000  C
  H24      1.0000 0.16940  0.11120  0.08770  Biso   1.000  H
  O13      1.0000 0.41164  0.97080  0.75640  Biso   1.000  O
  O14      1.0000 0.37130  0.89110  0.48860  Biso   1.000  O
  C37      1.0000 0.35960  0.90920  0.65920  Biso   1.000  C
  C38      1.0000 0.27770  0.85160  0.75610  Biso   1.000  C
  C39      1.0000 0.25950  0.87010  0.94230  Biso   1.000  C
  H25      1.0000 0.29740  0.91910  0.00600  Biso   1.000  H
  C40      1.0000 0.20570  0.90600  0.30370  Biso   1.000  C
  H26      1.0000 0.18700  0.89870  0.43980  Biso   1.000  H
  H27      1.0000 0.26510  0.92530  0.30460  Biso   1.000  H
  C41      1.0000 0.19300  0.96670  0.21700  Biso   1.000  C
  C42      1.0000 0.17960  0.01830  0.14400  Biso   1.000  C
  H28      1.0000 0.16940  0.05820  0.08770  Biso   1.000  H
  O15      1.0000 0.02920  0.44084  0.75640  Biso   1.000  O
  O16      1.0000 0.10890  0.48020  0.48860  Biso   1.000  O
  C43      1.0000 0.09080  0.45040  0.65920  Biso   1.000  C
  C44      1.0000 0.14840  0.42610  0.75610  Biso   1.000  C
  C45      1.0000 0.12990  0.38940  0.94230  Biso   1.000  C
  H29      1.0000 0.08090  0.37830  0.00600  Biso   1.000  H
  C46      1.0000 0.09400  0.29970  0.30370  Biso   1.000  C
  H30      1.0000 0.10130  0.28830  0.43980  Biso   1.000  H
  H31      1.0000 0.07470  0.33980  0.30460  Biso   1.000  H
  C47      1.0000 0.03330  0.22630  0.21700  Biso   1.000  C
  C48      1.0000 0.98170  0.16130  0.14400  Biso   1.000  C
  H32      1.0000 0.94180  0.11120  0.08770  Biso   1.000  H
  O17      1.0000 0.55916  0.58836  0.75640  Biso   1.000  O
  O18      1.0000 0.51980  0.62870  0.48860  Biso   1.000  O
  C49      1.0000 0.54960  0.64040  0.65920  Biso   1.000  C
  C50      1.0000 0.57390  0.72230  0.75610  Biso   1.000  C
  C51      1.0000 0.61060  0.74050  0.94230  Biso   1.000  C
  H33      1.0000 0.62170  0.70260  0.00600  Biso   1.000  H
  C52      1.0000 0.70030  0.79430  0.30370  Biso   1.000  C
  H34      1.0000 0.71170  0.81300  0.43980  Biso   1.000  H
  H35      1.0000 0.66020  0.73490  0.30460  Biso   1.000  H
  C53      1.0000 0.77370  0.80700  0.21700  Biso   1.000  C
  C54      1.0000 0.83870  0.82040  0.14400  Biso   1.000  C
  H36      1.0000 0.88880  0.83060  0.08770  Biso   1.000  H
  O19      1.0000 0.97080  0.41164  0.24360  Biso   1.000  O
  O20      1.0000 0.89110  0.37130  0.51140  Biso   1.000  O
  C55      1.0000 0.90920  0.35960  0.34080  Biso   1.000  C
  C56      1.0000 0.85160  0.27770  0.24390  Biso   1.000  C
  C57      1.0000 0.87010  0.25950  0.05770  Biso   1.000  C
  H37      1.0000 0.91910  0.29740  0.99400  Biso   1.000  H
  C58      1.0000 0.90600  0.20570  0.69630  Biso   1.000  C
  H38      1.0000 0.89870  0.18700  0.56020  Biso   1.000  H
  H39      1.0000 0.92530  0.26510  0.69540  Biso   1.000  H
  C59      1.0000 0.96670  0.19300  0.78300  Biso   1.000  C
  C60      1.0000 0.01830  0.17960  0.85600  Biso   1.000  C
  H40      1.0000 0.05820  0.16940  0.91230  Biso   1.000  H
  O21      1.0000 0.44084  0.02920  0.24360  Biso   1.000  O
  O22      1.0000 0.48020  0.10890  0.51140  Biso   1.000  O
  C61      1.0000 0.45040  0.09080  0.34080  Biso   1.000  C
  C62      1.0000 0.42610  0.14840  0.24390  Biso   1.000  C
  C63      1.0000 0.38940  0.12990  0.05770  Biso   1.000  C
  H41      1.0000 0.37830  0.08090  0.99400  Biso   1.000  H
  C64      1.0000 0.29970  0.09400  0.69630  Biso   1.000  C
  H42      1.0000 0.28830  0.10130  0.56020  Biso   1.000  H
  H43      1.0000 0.33980  0.07470  0.69540  Biso   1.000  H
  C65      1.0000 0.22630  0.03330  0.78300  Biso   1.000  C
  C66      1.0000 0.16130  0.98170  0.85600  Biso   1.000  C
  H44      1.0000 0.11120  0.94180  0.91230  Biso   1.000  H
  O23      1.0000 0.58836  0.55916  0.24360  Biso   1.000  O
  O24      1.0000 0.62870  0.51980  0.51140  Biso   1.000  O
  C67      1.0000 0.64040  0.54960  0.34080  Biso   1.000  C
  C68      1.0000 0.72230  0.57390  0.24390  Biso   1.000  C
  C69      1.0000 0.74050  0.61060  0.05770  Biso   1.000  C
  H45      1.0000 0.70260  0.62170  0.99400  Biso   1.000  H
  C70      1.0000 0.79430  0.70030  0.69630  Biso   1.000  C
  H46      1.0000 0.81300  0.71170  0.56020  Biso   1.000  H
  H47      1.0000 0.73490  0.66020  0.69540  Biso   1.000  H
  C71      1.0000 0.80700  0.77370  0.78300  Biso   1.000  C
  C72      1.0000 0.82040  0.83870  0.85600  Biso   1.000  C
  H48      1.0000 0.83060  0.88880  0.91230  Biso   1.000  H
  Cu1      1.0000 0.52387  0.04773  0.65496  Biso   1.000  Cu
  Cu2      1.0000 0.95227  0.47614  0.65496  Biso   1.000  Cu
  Cu3      1.0000 0.52387  0.47613  0.65496  Biso   1.000  Cu
  Cu4      1.0000 0.04773  0.52387  0.34504  Biso   1.000  Cu
  Cu5      1.0000 0.47613  0.95227  0.34504  Biso   1.000  Cu
  Cu6      1.0000 0.47613  0.52387  0.34504  Biso   1.000  Cu
  C73      1.0000 0.77810  0.22190  0.33820  Biso   1.000  C
  H49      1.0000 0.76640  0.23360  0.46380  Biso   1.000  H
  C74      1.0000 0.81520  0.18480  0.96790  Biso   1.000  C
  O25      1.0000 0.83340  0.16660  0.78640  Biso   1.000  O
  C75      1.0000 0.77810  0.55620  0.33820  Biso   1.000  C
  H50      1.0000 0.76640  0.53280  0.46380  Biso   1.000  H
  C76      1.0000 0.81520  0.63040  0.96790  Biso   1.000  C
  O26      1.0000 0.83340  0.66680  0.78640  Biso   1.000  O
  C77      1.0000 0.44380  0.22190  0.33820  Biso   1.000  C
  H51      1.0000 0.46720  0.23360  0.46380  Biso   1.000  H
  C78      1.0000 0.36960  0.18480  0.96790  Biso   1.000  C
  O27      1.0000 0.33320  0.16660  0.78640  Biso   1.000  O
  C79      1.0000 0.22190  0.77810  0.66180  Biso   1.000  C
  H52      1.0000 0.23360  0.76640  0.53620  Biso   1.000  H
  C80      1.0000 0.18480  0.81520  0.03210  Biso   1.000  C
  O28      1.0000 0.16660  0.83340  0.21360  Biso   1.000  O
  C81      1.0000 0.55620  0.77810  0.66180  Biso   1.000  C
  H53      1.0000 0.53280  0.76640  0.53620  Biso   1.000  H
  C82      1.0000 0.63040  0.81520  0.03210  Biso   1.000  C
  O29      1.0000 0.66680  0.83340  0.21360  Biso   1.000  O
  C83      1.0000 0.22190  0.44380  0.66180  Biso   1.000  C
  H54      1.0000 0.23360  0.46720  0.53620  Biso   1.000  H
  C84      1.0000 0.18480  0.36960  0.03210  Biso   1.000  C
  O30      1.0000 0.16660  0.33320  0.21360  Biso   1.000  O
