data_image0
_cell_length_a       9.3394
_cell_length_b       12.925
_cell_length_c       14.064
_cell_angle_alpha    103.44
_cell_angle_beta     102.03
_cell_angle_gamma    101.85

_symmetry_space_group_name_H-M    "P 1"
_symmetry_int_tables_number       1

loop_
  _symmetry_equiv_pos_as_xyz
  'x, y, z'

loop_
  _atom_site_label
  _atom_site_occupancy
  _atom_site_fract_x
  _atom_site_fract_y
  _atom_site_fract_z
  _atom_site_thermal_displace_type
  _atom_site_B_iso_or_equiv
  _atom_site_type_symbol
  Gd1      1.0000 0.01227  0.29289  0.23267  Biso   1.000  Gd
  Cl1      1.0000 0.92197  0.47225  0.28834  Biso   1.000  Cl
  Cl2      1.0000 0.06694  0.09725  0.18145  Biso   1.000  Cl
  Cl3      1.0000 0.24879  0.40720  0.18579  Biso   1.000  Cl
  N1       1.0000 0.93160  0.22720  0.37910  Biso   1.000  N
  N2       1.0000 0.90980  0.27410  0.04550  Biso   1.000  N
  C1       1.0000 0.85620  0.28660  0.43150  Biso   1.000  C
  H1       1.0000 0.80200  0.32940  0.39940  Biso   1.000  H
  C2       1.0000 0.85330  0.28870  0.52950  Biso   1.000  C
  H2       1.0000 0.79970  0.33320  0.56360  Biso   1.000  H
  C3       1.0000 0.92850  0.22590  0.57820  Biso   1.000  C
  C4       1.0000 0.00070  0.15970  0.52260  Biso   1.000  C
  H3       1.0000 0.05060  0.11290  0.55180  Biso   1.000  H
  C5       1.0000 0.99920  0.16240  0.42450  Biso   1.000  C
  H4       1.0000 0.04830  0.11620  0.38760  Biso   1.000  H
  C6       1.0000 0.93920  0.23130  0.68760  Biso   1.000  C
  H5       1.0000 0.03510  0.28610  0.72990  Biso   1.000  H
  H6       1.0000 0.94610  0.15860  0.69660  Biso   1.000  H
  C7       1.0000 0.81000  0.26100  0.72810  Biso   1.000  C
  H7       1.0000 0.80190  0.33400  0.72070  Biso   1.000  H
  H8       1.0000 0.71320  0.20580  0.68800  Biso   1.000  H
  C8       1.0000 0.83600  0.26420  0.83860  Biso   1.000  C
  C9       1.0000 0.85200  0.35970  0.91310  Biso   1.000  C
  H9       1.0000 0.83790  0.42400  0.89500  Biso   1.000  H
  C10      1.0000 0.88870  0.36170  0.01450  Biso   1.000  C
  H10      1.0000 0.89940  0.42850  0.06450  Biso   1.000  H
  C11      1.0000 0.89090  0.18050  0.97300  Biso   1.000  C
  H11      1.0000 0.90400  0.11700  0.99300  Biso   1.000  H
  C12      1.0000 0.85290  0.17210  0.87020  Biso   1.000  C
  H12      1.0000 0.83860  0.10350  0.82150  Biso   1.000  H
  N3       1.0000 0.23230  0.35220  0.39500  Biso   1.000  N
  C13      1.0000 0.23490  0.41850  0.48460  Biso   1.000  C
  H13      1.0000 0.15380  0.45180  0.48820  Biso   1.000  H
  C14      1.0000 0.35060  0.44060  0.57190  Biso   1.000  C
  H14      1.0000 0.34810  0.48790  0.63400  Biso   1.000  H
  C15      1.0000 0.46960  0.39310  0.56770  Biso   1.000  C
  H15      1.0000 0.55130  0.40780  0.62620  Biso   1.000  H
  C16      1.0000 0.46630  0.32400  0.47620  Biso   1.000  C
  H16      1.0000 0.54490  0.28820  0.47110  Biso   1.000  H
  C17      1.0000 0.34840  0.30680  0.39190  Biso   1.000  C
  H17      1.0000 0.34960  0.26070  0.32880  Biso   1.000  H
  N4       1.0000 0.72580  0.19340  0.17610  Biso   1.000  N
  C18      1.0000 0.61820  0.24540  0.15470  Biso   1.000  C
  H18      1.0000 0.64950  0.32130  0.15820  Biso   1.000  H
  C19      1.0000 0.46500  0.19510  0.12800  Biso   1.000  C
  H19      1.0000 0.39300  0.23570  0.11450  Biso   1.000  H
  C20      1.0000 0.41810  0.08540  0.12120  Biso   1.000  C
  H20      1.0000 0.31300  0.04840  0.10250  Biso   1.000  H
  C21      1.0000 0.52640  0.02980  0.14200  Biso   1.000  C
  H21      1.0000 0.49730  0.95340  0.13690  Biso   1.000  H
  C22      1.0000 0.67750  0.08670  0.17020  Biso   1.000  C
  H22      1.0000 0.75120  0.04820  0.18630  Biso   1.000  H
  Gd2      1.0000 0.98773  0.70711  0.76733  Biso   1.000  Gd
  Cl4      1.0000 0.07803  0.52775  0.71166  Biso   1.000  Cl
  Cl5      1.0000 0.93306  0.90275  0.81855  Biso   1.000  Cl
  Cl6      1.0000 0.75121  0.59280  0.81421  Biso   1.000  Cl
  N5       1.0000 0.06840  0.77280  0.62090  Biso   1.000  N
  N6       1.0000 0.09020  0.72590  0.95450  Biso   1.000  N
  C23      1.0000 0.14380  0.71340  0.56850  Biso   1.000  C
  H23      1.0000 0.19800  0.67060  0.60060  Biso   1.000  H
  C24      1.0000 0.14670  0.71130  0.47050  Biso   1.000  C
  H24      1.0000 0.20030  0.66680  0.43640  Biso   1.000  H
  C25      1.0000 0.07150  0.77410  0.42180  Biso   1.000  C
  C26      1.0000 0.99930  0.84030  0.47740  Biso   1.000  C
  H25      1.0000 0.94940  0.88710  0.44820  Biso   1.000  H
  C27      1.0000 0.00080  0.83760  0.57550  Biso   1.000  C
  H26      1.0000 0.95170  0.88380  0.61240  Biso   1.000  H
  C28      1.0000 0.06080  0.76870  0.31240  Biso   1.000  C
  H27      1.0000 0.96490  0.71390  0.27010  Biso   1.000  H
  H28      1.0000 0.05390  0.84140  0.30340  Biso   1.000  H
  C29      1.0000 0.19000  0.73900  0.27190  Biso   1.000  C
  H29      1.0000 0.19810  0.66600  0.27930  Biso   1.000  H
  H30      1.0000 0.28680  0.79420  0.31200  Biso   1.000  H
  C30      1.0000 0.16400  0.73580  0.16140  Biso   1.000  C
  C31      1.0000 0.14800  0.64030  0.08690  Biso   1.000  C
  H31      1.0000 0.16210  0.57600  0.10500  Biso   1.000  H
  C32      1.0000 0.11130  0.63830  0.98550  Biso   1.000  C
  H32      1.0000 0.10060  0.57150  0.93550  Biso   1.000  H
  C33      1.0000 0.10910  0.81950  0.02700  Biso   1.000  C
  H33      1.0000 0.09600  0.88300  0.00700  Biso   1.000  H
  C34      1.0000 0.14710  0.82790  0.12980  Biso   1.000  C
  H34      1.0000 0.16140  0.89650  0.17850  Biso   1.000  H
  N7       1.0000 0.76770  0.64780  0.60500  Biso   1.000  N
  C35      1.0000 0.76510  0.58150  0.51540  Biso   1.000  C
  H35      1.0000 0.84620  0.54820  0.51180  Biso   1.000  H
  C36      1.0000 0.64940  0.55940  0.42810  Biso   1.000  C
  H36      1.0000 0.65190  0.51210  0.36600  Biso   1.000  H
  C37      1.0000 0.53040  0.60690  0.43230  Biso   1.000  C
  H37      1.0000 0.44870  0.59220  0.37380  Biso   1.000  H
  C38      1.0000 0.53370  0.67600  0.52380  Biso   1.000  C
  H38      1.0000 0.45510  0.71180  0.52890  Biso   1.000  H
  C39      1.0000 0.65160  0.69320  0.60810  Biso   1.000  C
  H39      1.0000 0.65040  0.73930  0.67120  Biso   1.000  H
  N8       1.0000 0.27420  0.80660  0.82390  Biso   1.000  N
  C40      1.0000 0.38180  0.75460  0.84530  Biso   1.000  C
  H40      1.0000 0.35050  0.67870  0.84180  Biso   1.000  H
  C41      1.0000 0.53500  0.80490  0.87200  Biso   1.000  C
  H41      1.0000 0.60700  0.76430  0.88550  Biso   1.000  H
  C42      1.0000 0.58190  0.91460  0.87880  Biso   1.000  C
  H42      1.0000 0.68700  0.95160  0.89750  Biso   1.000  H
  C43      1.0000 0.47360  0.97020  0.85800  Biso   1.000  C
  H43      1.0000 0.50270  0.04660  0.86310  Biso   1.000  H
  C44      1.0000 0.32250  0.91330  0.82980  Biso   1.000  C
  H44      1.0000 0.24880  0.95180  0.81370  Biso   1.000  H
