data_image0
_cell_length_a       9.972
_cell_length_b       18.5568
_cell_length_c       13.9793
_cell_angle_alpha    90
_cell_angle_beta     103.826
_cell_angle_gamma    90

_symmetry_space_group_name_H-M    "P 1"
_symmetry_int_tables_number       1

loop_
  _symmetry_equiv_pos_as_xyz
  'x, y, z'

loop_
  _atom_site_label
  _atom_site_occupancy
  _atom_site_fract_x
  _atom_site_fract_y
  _atom_site_fract_z
  _atom_site_thermal_displace_type
  _atom_site_B_iso_or_equiv
  _atom_site_type_symbol
  Cd1      1.0000 0.85866  0.11079  0.67020  Biso   1.000  Cd
  N1       1.0000 0.70350  0.08209  0.52662  Biso   1.000  N
  N2       1.0000 0.62460  0.02707  0.38463  Biso   1.000  N
  N3       1.0000 0.60640  0.23039  0.05077  Biso   1.000  N
  N4       1.0000 0.50980  0.32546  0.10063  Biso   1.000  N
  N5       1.0000 0.11260  0.07305  0.97414  Biso   1.000  N
  N6       1.0000 0.98650  0.11494  0.83354  Biso   1.000  N
  C1       1.0000 0.56450  0.09671  0.49280  Biso   1.000  C
  C2       1.0000 0.51520  0.06314  0.40580  Biso   1.000  C
  C3       1.0000 0.73570  0.03994  0.46010  Biso   1.000  C
  C4       1.0000 0.62440  0.98072  0.29900  Biso   1.000  C
  C5       1.0000 0.55430  0.01760  0.20390  Biso   1.000  C
  C6       1.0000 0.62350  0.06602  0.15760  Biso   1.000  C
  C7       1.0000 0.55630  0.10144  0.07190  Biso   1.000  C
  C8       1.0000 0.41670  0.08745  0.03240  Biso   1.000  C
  C9       1.0000 0.34620  0.03976  0.07930  Biso   1.000  C
  C10      1.0000 0.41550  0.00447  0.16390  Biso   1.000  C
  C11      1.0000 0.63130  0.15550  0.02370  Biso   1.000  C
  C12      1.0000 0.50570  0.25478  0.09120  Biso   1.000  C
  C13      1.0000 0.61880  0.34705  0.06330  Biso   1.000  C
  C14      1.0000 0.67840  0.28940  0.03190  Biso   1.000  C
  C15      1.0000 0.19450  0.02214  0.04350  Biso   1.000  C
  C16      1.0000 0.06940  0.06314  0.87640  Biso   1.000  C
  C17      1.0000 0.97660  0.16106  0.90880  Biso   1.000  C
  C18      1.0000 0.05420  0.13606  0.99520  Biso   1.000  C
  H1       1.0000 0.51500  0.12840  0.52600  Biso   1.000  H
  H2       1.0000 0.43000  0.06090  0.36900  Biso   1.000  H
  H3       1.0000 0.82200  0.01950  0.46000  Biso   1.000  H
  H4       1.0000 0.57600  0.93810  0.30500  Biso   1.000  H
  H5       1.0000 0.72300  0.96890  0.30500  Biso   1.000  H
  H6       1.0000 0.71500  0.07760  0.18200  Biso   1.000  H
  H7       1.0000 0.37100  0.11110  0.97800  Biso   1.000  H
  H8       1.0000 0.37100  0.97320  0.19400  Biso   1.000  H
  H9       1.0000 0.60400  0.15160  0.95000  Biso   1.000  H
  H10      1.0000 0.72600  0.14820  0.04000  Biso   1.000  H
  H11      1.0000 0.44500  0.22410  0.11300  Biso   1.000  H
  H12      1.0000 0.63500  0.39440  0.05600  Biso   1.000  H
  H13      1.0000 0.75000  0.28570  0.00500  Biso   1.000  H
  H14      1.0000 0.18500  0.97640  0.01300  Biso   1.000  H
  H15      1.0000 0.14700  0.02020  0.10000  Biso   1.000  H
  H16      1.0000 0.10100  0.02210  0.84500  Biso   1.000  H
  H17      1.0000 0.92600  0.20370  0.89700  Biso   1.000  H
  H18      1.0000 0.07100  0.15250  0.05800  Biso   1.000  H
  Cd2      1.0000 0.35866  0.38921  0.17020  Biso   1.000  Cd
  N7       1.0000 0.20350  0.41791  0.02662  Biso   1.000  N
  N8       1.0000 0.12460  0.47293  0.88463  Biso   1.000  N
  N9       1.0000 0.10640  0.26961  0.55077  Biso   1.000  N
  N10      1.0000 0.00980  0.17454  0.60063  Biso   1.000  N
  N11      1.0000 0.61260  0.42695  0.47414  Biso   1.000  N
  N12      1.0000 0.48650  0.38506  0.33354  Biso   1.000  N
  C19      1.0000 0.06450  0.40329  0.99280  Biso   1.000  C
  C20      1.0000 0.01520  0.43686  0.90580  Biso   1.000  C
  C21      1.0000 0.23570  0.46006  0.96010  Biso   1.000  C
  C22      1.0000 0.12440  0.51928  0.79900  Biso   1.000  C
  C23      1.0000 0.05430  0.48240  0.70390  Biso   1.000  C
  C24      1.0000 0.12350  0.43398  0.65760  Biso   1.000  C
  C25      1.0000 0.05630  0.39856  0.57190  Biso   1.000  C
  C26      1.0000 0.91670  0.41255  0.53240  Biso   1.000  C
  C27      1.0000 0.84620  0.46024  0.57930  Biso   1.000  C
  C28      1.0000 0.91550  0.49553  0.66390  Biso   1.000  C
  C29      1.0000 0.13130  0.34450  0.52370  Biso   1.000  C
  C30      1.0000 0.00570  0.24522  0.59120  Biso   1.000  C
  C31      1.0000 0.11880  0.15295  0.56330  Biso   1.000  C
  C32      1.0000 0.17840  0.21060  0.53190  Biso   1.000  C
  C33      1.0000 0.69450  0.47786  0.54350  Biso   1.000  C
  C34      1.0000 0.56940  0.43686  0.37640  Biso   1.000  C
  C35      1.0000 0.47660  0.33894  0.40880  Biso   1.000  C
  C36      1.0000 0.55420  0.36394  0.49520  Biso   1.000  C
  H19      1.0000 0.01500  0.37160  0.02600  Biso   1.000  H
  H20      1.0000 0.93000  0.43910  0.86900  Biso   1.000  H
  H21      1.0000 0.32200  0.48050  0.96000  Biso   1.000  H
  H22      1.0000 0.07600  0.56190  0.80500  Biso   1.000  H
  H23      1.0000 0.22300  0.53110  0.80500  Biso   1.000  H
  H24      1.0000 0.21500  0.42240  0.68200  Biso   1.000  H
  H25      1.0000 0.87100  0.38890  0.47800  Biso   1.000  H
  H26      1.0000 0.87100  0.52680  0.69400  Biso   1.000  H
  H27      1.0000 0.10400  0.34840  0.45000  Biso   1.000  H
  H28      1.0000 0.22600  0.35180  0.54000  Biso   1.000  H
  H29      1.0000 0.94500  0.27590  0.61300  Biso   1.000  H
  H30      1.0000 0.13500  0.10560  0.55600  Biso   1.000  H
  H31      1.0000 0.25000  0.21430  0.50500  Biso   1.000  H
  H32      1.0000 0.68500  0.52360  0.51300  Biso   1.000  H
  H33      1.0000 0.64700  0.47980  0.60000  Biso   1.000  H
  H34      1.0000 0.60100  0.47790  0.34500  Biso   1.000  H
  H35      1.0000 0.42600  0.29630  0.39700  Biso   1.000  H
  H36      1.0000 0.57100  0.34750  0.55800  Biso   1.000  H
  Cd3      1.0000 0.64134  0.61079  0.82980  Biso   1.000  Cd
  N13      1.0000 0.79650  0.58209  0.97338  Biso   1.000  N
  N14      1.0000 0.87540  0.52707  0.11537  Biso   1.000  N
  N15      1.0000 0.89360  0.73039  0.44923  Biso   1.000  N
  N16      1.0000 0.99020  0.82546  0.39937  Biso   1.000  N
  N17      1.0000 0.38740  0.57305  0.52586  Biso   1.000  N
  N18      1.0000 0.51350  0.61494  0.66646  Biso   1.000  N
  C37      1.0000 0.93550  0.59671  0.00720  Biso   1.000  C
  C38      1.0000 0.98480  0.56314  0.09420  Biso   1.000  C
  C39      1.0000 0.76430  0.53994  0.03990  Biso   1.000  C
  C40      1.0000 0.87560  0.48072  0.20100  Biso   1.000  C
  C41      1.0000 0.94570  0.51760  0.29610  Biso   1.000  C
  C42      1.0000 0.87650  0.56602  0.34240  Biso   1.000  C
  C43      1.0000 0.94370  0.60144  0.42810  Biso   1.000  C
  C44      1.0000 0.08330  0.58745  0.46760  Biso   1.000  C
  C45      1.0000 0.15380  0.53976  0.42070  Biso   1.000  C
  C46      1.0000 0.08450  0.50447  0.33610  Biso   1.000  C
  C47      1.0000 0.86870  0.65550  0.47630  Biso   1.000  C
  C48      1.0000 0.99430  0.75478  0.40880  Biso   1.000  C
  C49      1.0000 0.88120  0.84705  0.43670  Biso   1.000  C
  C50      1.0000 0.82160  0.78940  0.46810  Biso   1.000  C
  C51      1.0000 0.30550  0.52214  0.45650  Biso   1.000  C
  C52      1.0000 0.43060  0.56314  0.62360  Biso   1.000  C
  C53      1.0000 0.52340  0.66106  0.59120  Biso   1.000  C
  C54      1.0000 0.44580  0.63606  0.50480  Biso   1.000  C
  H37      1.0000 0.98500  0.62840  0.97400  Biso   1.000  H
  H38      1.0000 0.07000  0.56090  0.13100  Biso   1.000  H
  H39      1.0000 0.67800  0.51950  0.04000  Biso   1.000  H
  H40      1.0000 0.92400  0.43810  0.19500  Biso   1.000  H
  H41      1.0000 0.77700  0.46890  0.19500  Biso   1.000  H
  H42      1.0000 0.78500  0.57760  0.31800  Biso   1.000  H
  H43      1.0000 0.12900  0.61110  0.52200  Biso   1.000  H
  H44      1.0000 0.12900  0.47320  0.30600  Biso   1.000  H
  H45      1.0000 0.89600  0.65160  0.55000  Biso   1.000  H
  H46      1.0000 0.77400  0.64820  0.46000  Biso   1.000  H
  H47      1.0000 0.05500  0.72410  0.38700  Biso   1.000  H
  H48      1.0000 0.86500  0.89440  0.44400  Biso   1.000  H
  H49      1.0000 0.75000  0.78570  0.49500  Biso   1.000  H
  H50      1.0000 0.31500  0.47640  0.48700  Biso   1.000  H
  H51      1.0000 0.35300  0.52020  0.40000  Biso   1.000  H
  H52      1.0000 0.39900  0.52210  0.65500  Biso   1.000  H
  H53      1.0000 0.57400  0.70370  0.60300  Biso   1.000  H
  H54      1.0000 0.42900  0.65250  0.44200  Biso   1.000  H
  Cd4      1.0000 0.14134  0.88921  0.32980  Biso   1.000  Cd
  N19      1.0000 0.29650  0.91791  0.47338  Biso   1.000  N
  N20      1.0000 0.37540  0.97293  0.61537  Biso   1.000  N
  N21      1.0000 0.39360  0.76961  0.94923  Biso   1.000  N
  N22      1.0000 0.49020  0.67454  0.89937  Biso   1.000  N
  N23      1.0000 0.88740  0.92695  0.02586  Biso   1.000  N
  N24      1.0000 0.01350  0.88506  0.16646  Biso   1.000  N
  C55      1.0000 0.43550  0.90329  0.50720  Biso   1.000  C
  C56      1.0000 0.48480  0.93686  0.59420  Biso   1.000  C
  C57      1.0000 0.26430  0.96006  0.53990  Biso   1.000  C
  C58      1.0000 0.37560  0.01928  0.70100  Biso   1.000  C
  C59      1.0000 0.44570  0.98240  0.79610  Biso   1.000  C
  C60      1.0000 0.37650  0.93398  0.84240  Biso   1.000  C
  C61      1.0000 0.44370  0.89856  0.92810  Biso   1.000  C
  C62      1.0000 0.58330  0.91255  0.96760  Biso   1.000  C
  C63      1.0000 0.65380  0.96024  0.92070  Biso   1.000  C
  C64      1.0000 0.58450  0.99553  0.83610  Biso   1.000  C
  C65      1.0000 0.36870  0.84450  0.97630  Biso   1.000  C
  C66      1.0000 0.49430  0.74522  0.90880  Biso   1.000  C
  C67      1.0000 0.38120  0.65295  0.93670  Biso   1.000  C
  C68      1.0000 0.32160  0.71060  0.96810  Biso   1.000  C
  C69      1.0000 0.80550  0.97786  0.95650  Biso   1.000  C
  C70      1.0000 0.93060  0.93686  0.12360  Biso   1.000  C
  C71      1.0000 0.02340  0.83894  0.09120  Biso   1.000  C
  C72      1.0000 0.94580  0.86394  0.00480  Biso   1.000  C
  H55      1.0000 0.48500  0.87160  0.47400  Biso   1.000  H
  H56      1.0000 0.57000  0.93910  0.63100  Biso   1.000  H
  H57      1.0000 0.17800  0.98050  0.54000  Biso   1.000  H
  H58      1.0000 0.42400  0.06190  0.69500  Biso   1.000  H
  H59      1.0000 0.27700  0.03110  0.69500  Biso   1.000  H
  H60      1.0000 0.28500  0.92240  0.81800  Biso   1.000  H
  H61      1.0000 0.62900  0.88890  0.02200  Biso   1.000  H
  H62      1.0000 0.62900  0.02680  0.80600  Biso   1.000  H
  H63      1.0000 0.39600  0.84840  0.05000  Biso   1.000  H
  H64      1.0000 0.27400  0.85180  0.96000  Biso   1.000  H
  H65      1.0000 0.55500  0.77590  0.88700  Biso   1.000  H
  H66      1.0000 0.36500  0.60560  0.94400  Biso   1.000  H
  H67      1.0000 0.25000  0.71430  0.99500  Biso   1.000  H
  H68      1.0000 0.81500  0.02360  0.98700  Biso   1.000  H
  H69      1.0000 0.85300  0.97980  0.90000  Biso   1.000  H
  H70      1.0000 0.89900  0.97790  0.15500  Biso   1.000  H
  H71      1.0000 0.07400  0.79630  0.10300  Biso   1.000  H
  H72      1.0000 0.92900  0.84750  0.94200  Biso   1.000  H
