data_image0
_cell_length_a       18.9052
_cell_length_b       18.9052
_cell_length_c       16.5315
_cell_angle_alpha    90
_cell_angle_beta     90
_cell_angle_gamma    90

_symmetry_space_group_name_H-M    "P 1"
_symmetry_int_tables_number       1

loop_
  _symmetry_equiv_pos_as_xyz
  'x, y, z'

loop_
  _atom_site_label
  _atom_site_occupancy
  _atom_site_fract_x
  _atom_site_fract_y
  _atom_site_fract_z
  _atom_site_thermal_displace_type
  _atom_site_B_iso_or_equiv
  _atom_site_type_symbol
  Ir1      1.0000 0.01046  0.83387  0.04941  Biso   1.000  Ir
  N1       1.0000 0.01800  0.89520  0.15260  Biso   1.000  N
  N2       1.0000 0.90190  0.85700  0.04910  Biso   1.000  N
  N3       1.0000 0.74520  0.98210  0.36760  Biso   1.000  N
  C1       1.0000 0.07740  0.91300  0.19010  Biso   1.000  C
  H1       1.0000 0.12290  0.90430  0.16790  Biso   1.000  H
  C2       1.0000 0.06700  0.94690  0.26790  Biso   1.000  C
  H2       1.0000 0.10160  0.96410  0.30470  Biso   1.000  H
  C3       1.0000 0.99420  0.94800  0.27520  Biso   1.000  C
  H3       1.0000 0.96840  0.96610  0.32000  Biso   1.000  H
  C4       1.0000 0.96340  0.91660  0.20270  Biso   1.000  C
  C5       1.0000 0.89320  0.91050  0.18580  Biso   1.000  C
  C6       1.0000 0.86350  0.88550  0.11380  Biso   1.000  C
  C7       1.0000 0.79030  0.87740  0.09480  Biso   1.000  C
  H4       1.0000 0.75100  0.88890  0.12800  Biso   1.000  H
  C8       1.0000 0.78900  0.84990  0.01880  Biso   1.000  C
  H5       1.0000 0.74780  0.83940  0.98830  Biso   1.000  H
  C9       1.0000 0.85550  0.84010  0.99440  Biso   1.000  C
  H6       1.0000 0.86770  0.82260  0.94240  Biso   1.000  H
  C10      1.0000 0.75810  0.02180  0.30230  Biso   1.000  C
  H7       1.0000 0.73470  0.06590  0.29610  Biso   1.000  H
  C11      1.0000 0.80670  0.99840  0.24180  Biso   1.000  C
  H8       1.0000 0.81350  0.02640  0.19480  Biso   1.000  H
  C12      1.0000 0.84440  0.93570  0.25030  Biso   1.000  C
  C13      1.0000 0.83300  0.89920  0.31960  Biso   1.000  C
  H9       1.0000 0.85880  0.85710  0.33020  Biso   1.000  H
  C14      1.0000 0.78310  0.92380  0.37560  Biso   1.000  C
  H10      1.0000 0.77590  0.89640  0.42310  Biso   1.000  H
  C15      1.0000 0.02480  0.85800  0.92330  Biso   1.000  C
  C16      1.0000 0.08360  0.88410  0.96780  Biso   1.000  C
  C17      1.0000 0.11960  0.82520  0.00200  Biso   1.000  C
  C18      1.0000 0.08310  0.76270  0.97870  Biso   1.000  C
  C19      1.0000 0.02440  0.78300  0.93010  Biso   1.000  C
  C20      1.0000 0.97190  0.90210  0.87700  Biso   1.000  C
  H11      1.0000 0.99700  0.93260  0.83850  Biso   1.000  H
  H12      1.0000 0.94490  0.93150  0.91490  Biso   1.000  H
  H13      1.0000 0.93950  0.87100  0.84750  Biso   1.000  H
  C21      1.0000 0.10420  0.96090  0.97710  Biso   1.000  C
  H14      1.0000 0.13560  0.97450  0.93260  Biso   1.000  H
  H15      1.0000 0.12880  0.96750  0.02870  Biso   1.000  H
  H16      1.0000 0.06170  0.99040  0.97590  Biso   1.000  H
  C22      1.0000 0.18530  0.82850  0.05410  Biso   1.000  C
  H17      1.0000 0.17550  0.80680  0.10670  Biso   1.000  H
  H18      1.0000 0.19910  0.87800  0.06190  Biso   1.000  H
  H19      1.0000 0.22380  0.80290  0.02730  Biso   1.000  H
  C23      1.0000 0.10300  0.68800  0.00160  Biso   1.000  C
  H20      1.0000 0.13590  0.66880  0.96140  Biso   1.000  H
  H21      1.0000 0.06030  0.65850  0.00350  Biso   1.000  H
  H22      1.0000 0.12570  0.68800  0.05490  Biso   1.000  H
  C24      1.0000 0.97110  0.73350  0.89220  Biso   1.000  C
  H23      1.0000 0.94180  0.75970  0.85350  Biso   1.000  H
  H24      1.0000 0.94090  0.71330  0.93450  Biso   1.000  H
  H25      1.0000 0.99600  0.69530  0.86390  Biso   1.000  H
  C25      1.0000 0.04780  0.87260  0.92470  Biso   1.000  C
  C26      1.0000 0.10020  0.88930  0.98400  Biso   1.000  C
  C27      1.0000 0.12030  0.82510  0.02340  Biso   1.000  C
  C28      1.0000 0.08030  0.76870  0.98830  Biso   1.000  C
  C29      1.0000 0.03550  0.79810  0.92740  Biso   1.000  C
  C30      1.0000 0.01160  0.92490  0.86860  Biso   1.000  C
  H26      1.0000 0.00510  0.97000  0.89680  Biso   1.000  H
  H27      1.0000 0.96540  0.90610  0.85240  Biso   1.000  H
  H28      1.0000 0.04090  0.93230  0.82050  Biso   1.000  H
  C31      1.0000 0.12940  0.96250  0.00210  Biso   1.000  C
  H29      1.0000 0.11980  0.97460  0.05870  Biso   1.000  H
  H30      1.0000 0.10670  0.99720  0.96660  Biso   1.000  H
  H31      1.0000 0.18060  0.96280  0.99260  Biso   1.000  H
  C32      1.0000 0.17460  0.81800  0.09060  Biso   1.000  C
  H32      1.0000 0.22200  0.81420  0.06700  Biso   1.000  H
  H33      1.0000 0.16440  0.77540  0.12250  Biso   1.000  H
  H34      1.0000 0.17240  0.85970  0.12570  Biso   1.000  H
  C33      1.0000 0.08470  0.69110  0.01180  Biso   1.000  C
  H35      1.0000 0.12040  0.66750  0.97840  Biso   1.000  H
  H36      1.0000 0.03860  0.66870  0.00320  Biso   1.000  H
  H37      1.0000 0.09780  0.68720  0.06900  Biso   1.000  H
  C34      1.0000 0.98390  0.75720  0.87460  Biso   1.000  C
  H38      1.0000 0.00650  0.74580  0.82290  Biso   1.000  H
  H39      1.0000 0.94180  0.78620  0.86490  Biso   1.000  H
  H40      1.0000 0.97020  0.71340  0.90210  Biso   1.000  H
  Ir2      1.0000 0.48954  0.66613  0.04941  Biso   1.000  Ir
  N4       1.0000 0.48200  0.60480  0.15260  Biso   1.000  N
  N5       1.0000 0.59810  0.64300  0.04910  Biso   1.000  N
  N6       1.0000 0.75480  0.51790  0.36760  Biso   1.000  N
  C35      1.0000 0.42260  0.58700  0.19010  Biso   1.000  C
  H41      1.0000 0.37710  0.59570  0.16790  Biso   1.000  H
  C36      1.0000 0.43300  0.55310  0.26790  Biso   1.000  C
  H42      1.0000 0.39840  0.53590  0.30470  Biso   1.000  H
  C37      1.0000 0.50580  0.55200  0.27520  Biso   1.000  C
  H43      1.0000 0.53160  0.53390  0.32000  Biso   1.000  H
  C38      1.0000 0.53660  0.58340  0.20270  Biso   1.000  C
  C39      1.0000 0.60680  0.58950  0.18580  Biso   1.000  C
  C40      1.0000 0.63650  0.61450  0.11380  Biso   1.000  C
  C41      1.0000 0.70970  0.62260  0.09480  Biso   1.000  C
  H44      1.0000 0.74900  0.61110  0.12800  Biso   1.000  H
  C42      1.0000 0.71100  0.65010  0.01880  Biso   1.000  C
  H45      1.0000 0.75220  0.66060  0.98830  Biso   1.000  H
  C43      1.0000 0.64450  0.65990  0.99440  Biso   1.000  C
  H46      1.0000 0.63230  0.67740  0.94240  Biso   1.000  H
  C44      1.0000 0.74190  0.47820  0.30230  Biso   1.000  C
  H47      1.0000 0.76530  0.43410  0.29610  Biso   1.000  H
  C45      1.0000 0.69330  0.50160  0.24180  Biso   1.000  C
  H48      1.0000 0.68650  0.47360  0.19480  Biso   1.000  H
  C46      1.0000 0.65560  0.56430  0.25030  Biso   1.000  C
  C47      1.0000 0.66700  0.60080  0.31960  Biso   1.000  C
  H49      1.0000 0.64120  0.64290  0.33020  Biso   1.000  H
  C48      1.0000 0.71690  0.57620  0.37560  Biso   1.000  C
  H50      1.0000 0.72410  0.60360  0.42310  Biso   1.000  H
  C49      1.0000 0.47520  0.64200  0.92330  Biso   1.000  C
  C50      1.0000 0.41640  0.61590  0.96780  Biso   1.000  C
  C51      1.0000 0.38040  0.67480  0.00200  Biso   1.000  C
  C52      1.0000 0.41690  0.73730  0.97870  Biso   1.000  C
  C53      1.0000 0.47560  0.71700  0.93010  Biso   1.000  C
  C54      1.0000 0.52810  0.59790  0.87700  Biso   1.000  C
  H51      1.0000 0.50300  0.56740  0.83850  Biso   1.000  H
  H52      1.0000 0.55510  0.56850  0.91490  Biso   1.000  H
  H53      1.0000 0.56050  0.62900  0.84750  Biso   1.000  H
  C55      1.0000 0.39580  0.53910  0.97710  Biso   1.000  C
  H54      1.0000 0.36440  0.52550  0.93260  Biso   1.000  H
  H55      1.0000 0.37120  0.53250  0.02870  Biso   1.000  H
  H56      1.0000 0.43830  0.50960  0.97590  Biso   1.000  H
  C56      1.0000 0.31470  0.67150  0.05410  Biso   1.000  C
  H57      1.0000 0.32450  0.69320  0.10670  Biso   1.000  H
  H58      1.0000 0.30090  0.62200  0.06190  Biso   1.000  H
  H59      1.0000 0.27620  0.69710  0.02730  Biso   1.000  H
  C57      1.0000 0.39700  0.81200  0.00160  Biso   1.000  C
  H60      1.0000 0.36410  0.83120  0.96140  Biso   1.000  H
  H61      1.0000 0.43970  0.84150  0.00350  Biso   1.000  H
  H62      1.0000 0.37430  0.81200  0.05490  Biso   1.000  H
  C58      1.0000 0.52890  0.76650  0.89220  Biso   1.000  C
  H63      1.0000 0.55820  0.74030  0.85350  Biso   1.000  H
  H64      1.0000 0.55910  0.78670  0.93450  Biso   1.000  H
  H65      1.0000 0.50400  0.80470  0.86390  Biso   1.000  H
  C59      1.0000 0.45220  0.62740  0.92470  Biso   1.000  C
  C60      1.0000 0.39980  0.61070  0.98400  Biso   1.000  C
  C61      1.0000 0.37970  0.67490  0.02340  Biso   1.000  C
  C62      1.0000 0.41970  0.73130  0.98830  Biso   1.000  C
  C63      1.0000 0.46450  0.70190  0.92740  Biso   1.000  C
  C64      1.0000 0.48840  0.57510  0.86860  Biso   1.000  C
  H66      1.0000 0.49490  0.53000  0.89680  Biso   1.000  H
  H67      1.0000 0.53460  0.59390  0.85240  Biso   1.000  H
  H68      1.0000 0.45910  0.56770  0.82050  Biso   1.000  H
  C65      1.0000 0.37060  0.53750  0.00210  Biso   1.000  C
  H69      1.0000 0.38020  0.52540  0.05870  Biso   1.000  H
  H70      1.0000 0.39330  0.50280  0.96660  Biso   1.000  H
  H71      1.0000 0.31940  0.53720  0.99260  Biso   1.000  H
  C66      1.0000 0.32540  0.68200  0.09060  Biso   1.000  C
  H72      1.0000 0.27800  0.68580  0.06700  Biso   1.000  H
  H73      1.0000 0.33560  0.72460  0.12250  Biso   1.000  H
  H74      1.0000 0.32760  0.64030  0.12570  Biso   1.000  H
  C67      1.0000 0.41530  0.80890  0.01180  Biso   1.000  C
  H75      1.0000 0.37960  0.83250  0.97840  Biso   1.000  H
  H76      1.0000 0.46140  0.83130  0.00320  Biso   1.000  H
  H77      1.0000 0.40220  0.81280  0.06900  Biso   1.000  H
  C68      1.0000 0.51610  0.74280  0.87460  Biso   1.000  C
  H78      1.0000 0.49350  0.75420  0.82290  Biso   1.000  H
  H79      1.0000 0.55820  0.71380  0.86490  Biso   1.000  H
  H80      1.0000 0.52980  0.78660  0.90210  Biso   1.000  H
  Ir3      1.0000 0.83387  0.48954  0.45059  Biso   1.000  Ir
  N7       1.0000 0.89520  0.48200  0.34740  Biso   1.000  N
  N8       1.0000 0.85700  0.59810  0.45090  Biso   1.000  N
  N9       1.0000 0.98210  0.75480  0.13240  Biso   1.000  N
  C69      1.0000 0.91300  0.42260  0.30990  Biso   1.000  C
  H81      1.0000 0.90430  0.37710  0.33210  Biso   1.000  H
  C70      1.0000 0.94690  0.43300  0.23210  Biso   1.000  C
  H82      1.0000 0.96410  0.39840  0.19530  Biso   1.000  H
  C71      1.0000 0.94800  0.50580  0.22480  Biso   1.000  C
  H83      1.0000 0.96610  0.53160  0.18000  Biso   1.000  H
  C72      1.0000 0.91660  0.53660  0.29730  Biso   1.000  C
  C73      1.0000 0.91050  0.60680  0.31420  Biso   1.000  C
  C74      1.0000 0.88550  0.63650  0.38620  Biso   1.000  C
  C75      1.0000 0.87740  0.70970  0.40520  Biso   1.000  C
  H84      1.0000 0.88890  0.74900  0.37200  Biso   1.000  H
  C76      1.0000 0.84990  0.71100  0.48120  Biso   1.000  C
  H85      1.0000 0.83940  0.75220  0.51170  Biso   1.000  H
  C77      1.0000 0.84010  0.64450  0.50560  Biso   1.000  C
  H86      1.0000 0.82260  0.63230  0.55760  Biso   1.000  H
  C78      1.0000 0.02180  0.74190  0.19770  Biso   1.000  C
  H87      1.0000 0.06590  0.76530  0.20390  Biso   1.000  H
  C79      1.0000 0.99840  0.69330  0.25820  Biso   1.000  C
  H88      1.0000 0.02640  0.68650  0.30520  Biso   1.000  H
  C80      1.0000 0.93570  0.65560  0.24970  Biso   1.000  C
  C81      1.0000 0.89920  0.66700  0.18040  Biso   1.000  C
  H89      1.0000 0.85710  0.64120  0.16980  Biso   1.000  H
  C82      1.0000 0.92380  0.71690  0.12440  Biso   1.000  C
  H90      1.0000 0.89640  0.72410  0.07690  Biso   1.000  H
  C83      1.0000 0.85800  0.47520  0.57670  Biso   1.000  C
  C84      1.0000 0.88410  0.41640  0.53220  Biso   1.000  C
  C85      1.0000 0.82520  0.38040  0.49800  Biso   1.000  C
  C86      1.0000 0.76270  0.41690  0.52130  Biso   1.000  C
  C87      1.0000 0.78300  0.47560  0.56990  Biso   1.000  C
  C88      1.0000 0.90210  0.52810  0.62300  Biso   1.000  C
  H91      1.0000 0.93260  0.50300  0.66150  Biso   1.000  H
  H92      1.0000 0.93150  0.55510  0.58510  Biso   1.000  H
  H93      1.0000 0.87100  0.56050  0.65250  Biso   1.000  H
  C89      1.0000 0.96090  0.39580  0.52290  Biso   1.000  C
  H94      1.0000 0.97450  0.36440  0.56740  Biso   1.000  H
  H95      1.0000 0.96750  0.37120  0.47130  Biso   1.000  H
  H96      1.0000 0.99040  0.43830  0.52410  Biso   1.000  H
  C90      1.0000 0.82850  0.31470  0.44590  Biso   1.000  C
  H97      1.0000 0.80680  0.32450  0.39330  Biso   1.000  H
  H98      1.0000 0.87800  0.30090  0.43810  Biso   1.000  H
  H99      1.0000 0.80290  0.27620  0.47270  Biso   1.000  H
  C91      1.0000 0.68800  0.39700  0.49840  Biso   1.000  C
  H100     1.0000 0.66880  0.36410  0.53860  Biso   1.000  H
  H101     1.0000 0.65850  0.43970  0.49650  Biso   1.000  H
  H102     1.0000 0.68800  0.37430  0.44510  Biso   1.000  H
  C92      1.0000 0.73350  0.52890  0.60780  Biso   1.000  C
  H103     1.0000 0.75970  0.55820  0.64650  Biso   1.000  H
  H104     1.0000 0.71330  0.55910  0.56550  Biso   1.000  H
  H105     1.0000 0.69530  0.50400  0.63610  Biso   1.000  H
  C93      1.0000 0.87260  0.45220  0.57530  Biso   1.000  C
  C94      1.0000 0.88930  0.39980  0.51600  Biso   1.000  C
  C95      1.0000 0.82510  0.37970  0.47660  Biso   1.000  C
  C96      1.0000 0.76870  0.41970  0.51170  Biso   1.000  C
  C97      1.0000 0.79810  0.46450  0.57260  Biso   1.000  C
  C98      1.0000 0.92490  0.48840  0.63140  Biso   1.000  C
  H106     1.0000 0.97000  0.49490  0.60320  Biso   1.000  H
  H107     1.0000 0.90610  0.53460  0.64760  Biso   1.000  H
  H108     1.0000 0.93230  0.45910  0.67950  Biso   1.000  H
  C99      1.0000 0.96250  0.37060  0.49790  Biso   1.000  C
  H109     1.0000 0.97460  0.38020  0.44130  Biso   1.000  H
  H110     1.0000 0.99720  0.39330  0.53340  Biso   1.000  H
  H111     1.0000 0.96280  0.31940  0.50740  Biso   1.000  H
  C100     1.0000 0.81800  0.32540  0.40940  Biso   1.000  C
  H112     1.0000 0.81420  0.27800  0.43300  Biso   1.000  H
  H113     1.0000 0.77540  0.33560  0.37750  Biso   1.000  H
  H114     1.0000 0.85970  0.32760  0.37430  Biso   1.000  H
  C101     1.0000 0.69110  0.41530  0.48820  Biso   1.000  C
  H115     1.0000 0.66750  0.37960  0.52160  Biso   1.000  H
  H116     1.0000 0.66870  0.46140  0.49680  Biso   1.000  H
  H117     1.0000 0.68720  0.40220  0.43100  Biso   1.000  H
  C102     1.0000 0.75720  0.51610  0.62540  Biso   1.000  C
  H118     1.0000 0.74580  0.49350  0.67710  Biso   1.000  H
  H119     1.0000 0.78620  0.55820  0.63510  Biso   1.000  H
  H120     1.0000 0.71340  0.52980  0.59790  Biso   1.000  H
  Ir4      1.0000 0.66613  0.01046  0.45059  Biso   1.000  Ir
  N10      1.0000 0.60480  0.01800  0.34740  Biso   1.000  N
  N11      1.0000 0.64300  0.90190  0.45090  Biso   1.000  N
  N12      1.0000 0.51790  0.74520  0.13240  Biso   1.000  N
  C103     1.0000 0.58700  0.07740  0.30990  Biso   1.000  C
  H121     1.0000 0.59570  0.12290  0.33210  Biso   1.000  H
  C104     1.0000 0.55310  0.06700  0.23210  Biso   1.000  C
  H122     1.0000 0.53590  0.10160  0.19530  Biso   1.000  H
  C105     1.0000 0.55200  0.99420  0.22480  Biso   1.000  C
  H123     1.0000 0.53390  0.96840  0.18000  Biso   1.000  H
  C106     1.0000 0.58340  0.96340  0.29730  Biso   1.000  C
  C107     1.0000 0.58950  0.89320  0.31420  Biso   1.000  C
  C108     1.0000 0.61450  0.86350  0.38620  Biso   1.000  C
  C109     1.0000 0.62260  0.79030  0.40520  Biso   1.000  C
  H124     1.0000 0.61110  0.75100  0.37200  Biso   1.000  H
  C110     1.0000 0.65010  0.78900  0.48120  Biso   1.000  C
  H125     1.0000 0.66060  0.74780  0.51170  Biso   1.000  H
  C111     1.0000 0.65990  0.85550  0.50560  Biso   1.000  C
  H126     1.0000 0.67740  0.86770  0.55760  Biso   1.000  H
  C112     1.0000 0.47820  0.75810  0.19770  Biso   1.000  C
  H127     1.0000 0.43410  0.73470  0.20390  Biso   1.000  H
  C113     1.0000 0.50160  0.80670  0.25820  Biso   1.000  C
  H128     1.0000 0.47360  0.81350  0.30520  Biso   1.000  H
  C114     1.0000 0.56430  0.84440  0.24970  Biso   1.000  C
  C115     1.0000 0.60080  0.83300  0.18040  Biso   1.000  C
  H129     1.0000 0.64290  0.85880  0.16980  Biso   1.000  H
  C116     1.0000 0.57620  0.78310  0.12440  Biso   1.000  C
  H130     1.0000 0.60360  0.77590  0.07690  Biso   1.000  H
  C117     1.0000 0.64200  0.02480  0.57670  Biso   1.000  C
  C118     1.0000 0.61590  0.08360  0.53220  Biso   1.000  C
  C119     1.0000 0.67480  0.11960  0.49800  Biso   1.000  C
  C120     1.0000 0.73730  0.08310  0.52130  Biso   1.000  C
  C121     1.0000 0.71700  0.02440  0.56990  Biso   1.000  C
  C122     1.0000 0.59790  0.97190  0.62300  Biso   1.000  C
  H131     1.0000 0.56740  0.99700  0.66150  Biso   1.000  H
  H132     1.0000 0.56850  0.94490  0.58510  Biso   1.000  H
  H133     1.0000 0.62900  0.93950  0.65250  Biso   1.000  H
  C123     1.0000 0.53910  0.10420  0.52290  Biso   1.000  C
  H134     1.0000 0.52550  0.13560  0.56740  Biso   1.000  H
  H135     1.0000 0.53250  0.12880  0.47130  Biso   1.000  H
  H136     1.0000 0.50960  0.06170  0.52410  Biso   1.000  H
  C124     1.0000 0.67150  0.18530  0.44590  Biso   1.000  C
  H137     1.0000 0.69320  0.17550  0.39330  Biso   1.000  H
  H138     1.0000 0.62200  0.19910  0.43810  Biso   1.000  H
  H139     1.0000 0.69710  0.22380  0.47270  Biso   1.000  H
  C125     1.0000 0.81200  0.10300  0.49840  Biso   1.000  C
  H140     1.0000 0.83120  0.13590  0.53860  Biso   1.000  H
  H141     1.0000 0.84150  0.06030  0.49650  Biso   1.000  H
  H142     1.0000 0.81200  0.12570  0.44510  Biso   1.000  H
  C126     1.0000 0.76650  0.97110  0.60780  Biso   1.000  C
  H143     1.0000 0.74030  0.94180  0.64650  Biso   1.000  H
  H144     1.0000 0.78670  0.94090  0.56550  Biso   1.000  H
  H145     1.0000 0.80470  0.99600  0.63610  Biso   1.000  H
  C127     1.0000 0.62740  0.04780  0.57530  Biso   1.000  C
  C128     1.0000 0.61070  0.10020  0.51600  Biso   1.000  C
  C129     1.0000 0.67490  0.12030  0.47660  Biso   1.000  C
  C130     1.0000 0.73130  0.08030  0.51170  Biso   1.000  C
  C131     1.0000 0.70190  0.03550  0.57260  Biso   1.000  C
  C132     1.0000 0.57510  0.01160  0.63140  Biso   1.000  C
  H146     1.0000 0.53000  0.00510  0.60320  Biso   1.000  H
  H147     1.0000 0.59390  0.96540  0.64760  Biso   1.000  H
  H148     1.0000 0.56770  0.04090  0.67950  Biso   1.000  H
  C133     1.0000 0.53750  0.12940  0.49790  Biso   1.000  C
  H149     1.0000 0.52540  0.11980  0.44130  Biso   1.000  H
  H150     1.0000 0.50280  0.10670  0.53340  Biso   1.000  H
  H151     1.0000 0.53720  0.18060  0.50740  Biso   1.000  H
  C134     1.0000 0.68200  0.17460  0.40940  Biso   1.000  C
  H152     1.0000 0.68580  0.22200  0.43300  Biso   1.000  H
  H153     1.0000 0.72460  0.16440  0.37750  Biso   1.000  H
  H154     1.0000 0.64030  0.17240  0.37430  Biso   1.000  H
  C135     1.0000 0.80890  0.08470  0.48820  Biso   1.000  C
  H155     1.0000 0.83250  0.12040  0.52160  Biso   1.000  H
  H156     1.0000 0.83130  0.03860  0.49680  Biso   1.000  H
  H157     1.0000 0.81280  0.09780  0.43100  Biso   1.000  H
  C136     1.0000 0.74280  0.98390  0.62540  Biso   1.000  C
  H158     1.0000 0.75420  0.00650  0.67710  Biso   1.000  H
  H159     1.0000 0.71380  0.94180  0.63510  Biso   1.000  H
  H160     1.0000 0.78660  0.97020  0.59790  Biso   1.000  H
  Ir5      1.0000 0.16613  0.51046  0.54941  Biso   1.000  Ir
  N13      1.0000 0.10480  0.51800  0.65260  Biso   1.000  N
  N14      1.0000 0.14300  0.40190  0.54910  Biso   1.000  N
  N15      1.0000 0.01790  0.24520  0.86760  Biso   1.000  N
  C137     1.0000 0.08700  0.57740  0.69010  Biso   1.000  C
  H161     1.0000 0.09570  0.62290  0.66790  Biso   1.000  H
  C138     1.0000 0.05310  0.56700  0.76790  Biso   1.000  C
  H162     1.0000 0.03590  0.60160  0.80470  Biso   1.000  H
  C139     1.0000 0.05200  0.49420  0.77520  Biso   1.000  C
  H163     1.0000 0.03390  0.46840  0.82000  Biso   1.000  H
  C140     1.0000 0.08340  0.46340  0.70270  Biso   1.000  C
  C141     1.0000 0.08950  0.39320  0.68580  Biso   1.000  C
  C142     1.0000 0.11450  0.36350  0.61380  Biso   1.000  C
  C143     1.0000 0.12260  0.29030  0.59480  Biso   1.000  C
  H164     1.0000 0.11110  0.25100  0.62800  Biso   1.000  H
  C144     1.0000 0.15010  0.28900  0.51880  Biso   1.000  C
  H165     1.0000 0.16060  0.24780  0.48830  Biso   1.000  H
  C145     1.0000 0.15990  0.35550  0.49440  Biso   1.000  C
  H166     1.0000 0.17740  0.36770  0.44240  Biso   1.000  H
  C146     1.0000 0.97820  0.25810  0.80230  Biso   1.000  C
  H167     1.0000 0.93410  0.23470  0.79610  Biso   1.000  H
  C147     1.0000 0.00160  0.30670  0.74180  Biso   1.000  C
  H168     1.0000 0.97360  0.31350  0.69480  Biso   1.000  H
  C148     1.0000 0.06430  0.34440  0.75030  Biso   1.000  C
  C149     1.0000 0.10080  0.33300  0.81960  Biso   1.000  C
  H169     1.0000 0.14290  0.35880  0.83020  Biso   1.000  H
  C150     1.0000 0.07620  0.28310  0.87560  Biso   1.000  C
  H170     1.0000 0.10360  0.27590  0.92310  Biso   1.000  H
  C151     1.0000 0.14200  0.52480  0.42330  Biso   1.000  C
  C152     1.0000 0.11590  0.58360  0.46780  Biso   1.000  C
  C153     1.0000 0.17480  0.61960  0.50200  Biso   1.000  C
  C154     1.0000 0.23730  0.58310  0.47870  Biso   1.000  C
  C155     1.0000 0.21700  0.52440  0.43010  Biso   1.000  C
  C156     1.0000 0.09790  0.47190  0.37700  Biso   1.000  C
  H171     1.0000 0.06740  0.49700  0.33850  Biso   1.000  H
  H172     1.0000 0.06850  0.44490  0.41490  Biso   1.000  H
  H173     1.0000 0.12900  0.43950  0.34750  Biso   1.000  H
  C157     1.0000 0.03910  0.60420  0.47710  Biso   1.000  C
  H174     1.0000 0.02550  0.63560  0.43260  Biso   1.000  H
  H175     1.0000 0.03250  0.62880  0.52870  Biso   1.000  H
  H176     1.0000 0.00960  0.56170  0.47590  Biso   1.000  H
  C158     1.0000 0.17150  0.68530  0.55410  Biso   1.000  C
  H177     1.0000 0.19320  0.67550  0.60670  Biso   1.000  H
  H178     1.0000 0.12200  0.69910  0.56190  Biso   1.000  H
  H179     1.0000 0.19710  0.72380  0.52730  Biso   1.000  H
  C159     1.0000 0.31200  0.60300  0.50160  Biso   1.000  C
  H180     1.0000 0.33120  0.63590  0.46140  Biso   1.000  H
  H181     1.0000 0.34150  0.56030  0.50350  Biso   1.000  H
  H182     1.0000 0.31200  0.62570  0.55490  Biso   1.000  H
  C160     1.0000 0.26650  0.47110  0.39220  Biso   1.000  C
  H183     1.0000 0.24030  0.44180  0.35350  Biso   1.000  H
  H184     1.0000 0.28670  0.44090  0.43450  Biso   1.000  H
  H185     1.0000 0.30470  0.49600  0.36390  Biso   1.000  H
  C161     1.0000 0.12740  0.54780  0.42470  Biso   1.000  C
  C162     1.0000 0.11070  0.60020  0.48400  Biso   1.000  C
  C163     1.0000 0.17490  0.62030  0.52340  Biso   1.000  C
  C164     1.0000 0.23130  0.58030  0.48830  Biso   1.000  C
  C165     1.0000 0.20190  0.53550  0.42740  Biso   1.000  C
  C166     1.0000 0.07510  0.51160  0.36860  Biso   1.000  C
  H186     1.0000 0.03000  0.50510  0.39680  Biso   1.000  H
  H187     1.0000 0.09390  0.46540  0.35240  Biso   1.000  H
  H188     1.0000 0.06770  0.54090  0.32050  Biso   1.000  H
  C167     1.0000 0.03750  0.62940  0.50210  Biso   1.000  C
  H189     1.0000 0.02540  0.61980  0.55870  Biso   1.000  H
  H190     1.0000 0.00280  0.60670  0.46660  Biso   1.000  H
  H191     1.0000 0.03720  0.68060  0.49260  Biso   1.000  H
  C168     1.0000 0.18200  0.67460  0.59060  Biso   1.000  C
  H192     1.0000 0.18580  0.72200  0.56700  Biso   1.000  H
  H193     1.0000 0.22460  0.66440  0.62250  Biso   1.000  H
  H194     1.0000 0.14030  0.67240  0.62570  Biso   1.000  H
  C169     1.0000 0.30890  0.58470  0.51180  Biso   1.000  C
  H195     1.0000 0.33250  0.62040  0.47840  Biso   1.000  H
  H196     1.0000 0.33130  0.53860  0.50320  Biso   1.000  H
  H197     1.0000 0.31280  0.59780  0.56900  Biso   1.000  H
  C170     1.0000 0.24280  0.48390  0.37460  Biso   1.000  C
  H198     1.0000 0.25420  0.50650  0.32290  Biso   1.000  H
  H199     1.0000 0.21380  0.44180  0.36490  Biso   1.000  H
  H200     1.0000 0.28660  0.47020  0.40210  Biso   1.000  H
  Ir6      1.0000 0.33387  0.98954  0.54941  Biso   1.000  Ir
  N16      1.0000 0.39520  0.98200  0.65260  Biso   1.000  N
  N17      1.0000 0.35700  0.09810  0.54910  Biso   1.000  N
  N18      1.0000 0.48210  0.25480  0.86760  Biso   1.000  N
  C171     1.0000 0.41300  0.92260  0.69010  Biso   1.000  C
  H201     1.0000 0.40430  0.87710  0.66790  Biso   1.000  H
  C172     1.0000 0.44690  0.93300  0.76790  Biso   1.000  C
  H202     1.0000 0.46410  0.89840  0.80470  Biso   1.000  H
  C173     1.0000 0.44800  0.00580  0.77520  Biso   1.000  C
  H203     1.0000 0.46610  0.03160  0.82000  Biso   1.000  H
  C174     1.0000 0.41660  0.03660  0.70270  Biso   1.000  C
  C175     1.0000 0.41050  0.10680  0.68580  Biso   1.000  C
  C176     1.0000 0.38550  0.13650  0.61380  Biso   1.000  C
  C177     1.0000 0.37740  0.20970  0.59480  Biso   1.000  C
  H204     1.0000 0.38890  0.24900  0.62800  Biso   1.000  H
  C178     1.0000 0.34990  0.21100  0.51880  Biso   1.000  C
  H205     1.0000 0.33940  0.25220  0.48830  Biso   1.000  H
  C179     1.0000 0.34010  0.14450  0.49440  Biso   1.000  C
  H206     1.0000 0.32260  0.13230  0.44240  Biso   1.000  H
  C180     1.0000 0.52180  0.24190  0.80230  Biso   1.000  C
  H207     1.0000 0.56590  0.26530  0.79610  Biso   1.000  H
  C181     1.0000 0.49840  0.19330  0.74180  Biso   1.000  C
  H208     1.0000 0.52640  0.18650  0.69480  Biso   1.000  H
  C182     1.0000 0.43570  0.15560  0.75030  Biso   1.000  C
  C183     1.0000 0.39920  0.16700  0.81960  Biso   1.000  C
  H209     1.0000 0.35710  0.14120  0.83020  Biso   1.000  H
  C184     1.0000 0.42380  0.21690  0.87560  Biso   1.000  C
  H210     1.0000 0.39640  0.22410  0.92310  Biso   1.000  H
  C185     1.0000 0.35800  0.97520  0.42330  Biso   1.000  C
  C186     1.0000 0.38410  0.91640  0.46780  Biso   1.000  C
  C187     1.0000 0.32520  0.88040  0.50200  Biso   1.000  C
  C188     1.0000 0.26270  0.91690  0.47870  Biso   1.000  C
  C189     1.0000 0.28300  0.97560  0.43010  Biso   1.000  C
  C190     1.0000 0.40210  0.02810  0.37700  Biso   1.000  C
  H211     1.0000 0.43260  0.00300  0.33850  Biso   1.000  H
  H212     1.0000 0.43150  0.05510  0.41490  Biso   1.000  H
  H213     1.0000 0.37100  0.06050  0.34750  Biso   1.000  H
  C191     1.0000 0.46090  0.89580  0.47710  Biso   1.000  C
  H214     1.0000 0.47450  0.86440  0.43260  Biso   1.000  H
  H215     1.0000 0.46750  0.87120  0.52870  Biso   1.000  H
  H216     1.0000 0.49040  0.93830  0.47590  Biso   1.000  H
  C192     1.0000 0.32850  0.81470  0.55410  Biso   1.000  C
  H217     1.0000 0.30680  0.82450  0.60670  Biso   1.000  H
  H218     1.0000 0.37800  0.80090  0.56190  Biso   1.000  H
  H219     1.0000 0.30290  0.77620  0.52730  Biso   1.000  H
  C193     1.0000 0.18800  0.89700  0.50160  Biso   1.000  C
  H220     1.0000 0.16880  0.86410  0.46140  Biso   1.000  H
  H221     1.0000 0.15850  0.93970  0.50350  Biso   1.000  H
  H222     1.0000 0.18800  0.87430  0.55490  Biso   1.000  H
  C194     1.0000 0.23350  0.02890  0.39220  Biso   1.000  C
  H223     1.0000 0.25970  0.05820  0.35350  Biso   1.000  H
  H224     1.0000 0.21330  0.05910  0.43450  Biso   1.000  H
  H225     1.0000 0.19530  0.00400  0.36390  Biso   1.000  H
  C195     1.0000 0.37260  0.95220  0.42470  Biso   1.000  C
  C196     1.0000 0.38930  0.89980  0.48400  Biso   1.000  C
  C197     1.0000 0.32510  0.87970  0.52340  Biso   1.000  C
  C198     1.0000 0.26870  0.91970  0.48830  Biso   1.000  C
  C199     1.0000 0.29810  0.96450  0.42740  Biso   1.000  C
  C200     1.0000 0.42490  0.98840  0.36860  Biso   1.000  C
  H226     1.0000 0.47000  0.99490  0.39680  Biso   1.000  H
  H227     1.0000 0.40610  0.03460  0.35240  Biso   1.000  H
  H228     1.0000 0.43230  0.95910  0.32050  Biso   1.000  H
  C201     1.0000 0.46250  0.87060  0.50210  Biso   1.000  C
  H229     1.0000 0.47460  0.88020  0.55870  Biso   1.000  H
  H230     1.0000 0.49720  0.89330  0.46660  Biso   1.000  H
  H231     1.0000 0.46280  0.81940  0.49260  Biso   1.000  H
  C202     1.0000 0.31800  0.82540  0.59060  Biso   1.000  C
  H232     1.0000 0.31420  0.77800  0.56700  Biso   1.000  H
  H233     1.0000 0.27540  0.83560  0.62250  Biso   1.000  H
  H234     1.0000 0.35970  0.82760  0.62570  Biso   1.000  H
  C203     1.0000 0.19110  0.91530  0.51180  Biso   1.000  C
  H235     1.0000 0.16750  0.87960  0.47840  Biso   1.000  H
  H236     1.0000 0.16870  0.96140  0.50320  Biso   1.000  H
  H237     1.0000 0.18720  0.90220  0.56900  Biso   1.000  H
  C204     1.0000 0.25720  0.01610  0.37460  Biso   1.000  C
  H238     1.0000 0.24580  0.99350  0.32290  Biso   1.000  H
  H239     1.0000 0.28620  0.05820  0.36490  Biso   1.000  H
  H240     1.0000 0.21340  0.02980  0.40210  Biso   1.000  H
  Ir7      1.0000 0.98954  0.16613  0.95059  Biso   1.000  Ir
  N19      1.0000 0.98200  0.10480  0.84740  Biso   1.000  N
  N20      1.0000 0.09810  0.14300  0.95090  Biso   1.000  N
  N21      1.0000 0.25480  0.01790  0.63240  Biso   1.000  N
  C205     1.0000 0.92260  0.08700  0.80990  Biso   1.000  C
  H241     1.0000 0.87710  0.09570  0.83210  Biso   1.000  H
  C206     1.0000 0.93300  0.05310  0.73210  Biso   1.000  C
  H242     1.0000 0.89840  0.03590  0.69530  Biso   1.000  H
  C207     1.0000 0.00580  0.05200  0.72480  Biso   1.000  C
  H243     1.0000 0.03160  0.03390  0.68000  Biso   1.000  H
  C208     1.0000 0.03660  0.08340  0.79730  Biso   1.000  C
  C209     1.0000 0.10680  0.08950  0.81420  Biso   1.000  C
  C210     1.0000 0.13650  0.11450  0.88620  Biso   1.000  C
  C211     1.0000 0.20970  0.12260  0.90520  Biso   1.000  C
  H244     1.0000 0.24900  0.11110  0.87200  Biso   1.000  H
  C212     1.0000 0.21100  0.15010  0.98120  Biso   1.000  C
  H245     1.0000 0.25220  0.16060  0.01170  Biso   1.000  H
  C213     1.0000 0.14450  0.15990  0.00560  Biso   1.000  C
  H246     1.0000 0.13230  0.17740  0.05760  Biso   1.000  H
  C214     1.0000 0.24190  0.97820  0.69770  Biso   1.000  C
  H247     1.0000 0.26530  0.93410  0.70390  Biso   1.000  H
  C215     1.0000 0.19330  0.00160  0.75820  Biso   1.000  C
  H248     1.0000 0.18650  0.97360  0.80520  Biso   1.000  H
  C216     1.0000 0.15560  0.06430  0.74970  Biso   1.000  C
  C217     1.0000 0.16700  0.10080  0.68040  Biso   1.000  C
  H249     1.0000 0.14120  0.14290  0.66980  Biso   1.000  H
  C218     1.0000 0.21690  0.07620  0.62440  Biso   1.000  C
  H250     1.0000 0.22410  0.10360  0.57690  Biso   1.000  H
  C219     1.0000 0.97520  0.14200  0.07670  Biso   1.000  C
  C220     1.0000 0.91640  0.11590  0.03220  Biso   1.000  C
  C221     1.0000 0.88040  0.17480  0.99800  Biso   1.000  C
  C222     1.0000 0.91690  0.23730  0.02130  Biso   1.000  C
  C223     1.0000 0.97560  0.21700  0.06990  Biso   1.000  C
  C224     1.0000 0.02810  0.09790  0.12300  Biso   1.000  C
  H251     1.0000 0.00300  0.06740  0.16150  Biso   1.000  H
  H252     1.0000 0.05510  0.06850  0.08510  Biso   1.000  H
  H253     1.0000 0.06050  0.12900  0.15250  Biso   1.000  H
  C225     1.0000 0.89580  0.03910  0.02290  Biso   1.000  C
  H254     1.0000 0.86440  0.02550  0.06740  Biso   1.000  H
  H255     1.0000 0.87120  0.03250  0.97130  Biso   1.000  H
  H256     1.0000 0.93830  0.00960  0.02410  Biso   1.000  H
  C226     1.0000 0.81470  0.17150  0.94590  Biso   1.000  C
  H257     1.0000 0.82450  0.19320  0.89330  Biso   1.000  H
  H258     1.0000 0.80090  0.12200  0.93810  Biso   1.000  H
  H259     1.0000 0.77620  0.19710  0.97270  Biso   1.000  H
  C227     1.0000 0.89700  0.31200  0.99840  Biso   1.000  C
  H260     1.0000 0.86410  0.33120  0.03860  Biso   1.000  H
  H261     1.0000 0.93970  0.34150  0.99650  Biso   1.000  H
  H262     1.0000 0.87430  0.31200  0.94510  Biso   1.000  H
  C228     1.0000 0.02890  0.26650  0.10780  Biso   1.000  C
  H263     1.0000 0.05820  0.24030  0.14650  Biso   1.000  H
  H264     1.0000 0.05910  0.28670  0.06550  Biso   1.000  H
  H265     1.0000 0.00400  0.30470  0.13610  Biso   1.000  H
  C229     1.0000 0.95220  0.12740  0.07530  Biso   1.000  C
  C230     1.0000 0.89980  0.11070  0.01600  Biso   1.000  C
  C231     1.0000 0.87970  0.17490  0.97660  Biso   1.000  C
  C232     1.0000 0.91970  0.23130  0.01170  Biso   1.000  C
  C233     1.0000 0.96450  0.20190  0.07260  Biso   1.000  C
  C234     1.0000 0.98840  0.07510  0.13140  Biso   1.000  C
  H266     1.0000 0.99490  0.03000  0.10320  Biso   1.000  H
  H267     1.0000 0.03460  0.09390  0.14760  Biso   1.000  H
  H268     1.0000 0.95910  0.06770  0.17950  Biso   1.000  H
  C235     1.0000 0.87060  0.03750  0.99790  Biso   1.000  C
  H269     1.0000 0.88020  0.02540  0.94130  Biso   1.000  H
  H270     1.0000 0.89330  0.00280  0.03340  Biso   1.000  H
  H271     1.0000 0.81940  0.03720  0.00740  Biso   1.000  H
  C236     1.0000 0.82540  0.18200  0.90940  Biso   1.000  C
  H272     1.0000 0.77800  0.18580  0.93300  Biso   1.000  H
  H273     1.0000 0.83560  0.22460  0.87750  Biso   1.000  H
  H274     1.0000 0.82760  0.14030  0.87430  Biso   1.000  H
  C237     1.0000 0.91530  0.30890  0.98820  Biso   1.000  C
  H275     1.0000 0.87960  0.33250  0.02160  Biso   1.000  H
  H276     1.0000 0.96140  0.33130  0.99680  Biso   1.000  H
  H277     1.0000 0.90220  0.31280  0.93100  Biso   1.000  H
  C238     1.0000 0.01610  0.24280  0.12540  Biso   1.000  C
  H278     1.0000 0.99350  0.25420  0.17710  Biso   1.000  H
  H279     1.0000 0.05820  0.21380  0.13510  Biso   1.000  H
  H280     1.0000 0.02980  0.28660  0.09790  Biso   1.000  H
  Ir8      1.0000 0.51046  0.33387  0.95059  Biso   1.000  Ir
  N22      1.0000 0.51800  0.39520  0.84740  Biso   1.000  N
  N23      1.0000 0.40190  0.35700  0.95090  Biso   1.000  N
  N24      1.0000 0.24520  0.48210  0.63240  Biso   1.000  N
  C239     1.0000 0.57740  0.41300  0.80990  Biso   1.000  C
  H281     1.0000 0.62290  0.40430  0.83210  Biso   1.000  H
  C240     1.0000 0.56700  0.44690  0.73210  Biso   1.000  C
  H282     1.0000 0.60160  0.46410  0.69530  Biso   1.000  H
  C241     1.0000 0.49420  0.44800  0.72480  Biso   1.000  C
  H283     1.0000 0.46840  0.46610  0.68000  Biso   1.000  H
  C242     1.0000 0.46340  0.41660  0.79730  Biso   1.000  C
  C243     1.0000 0.39320  0.41050  0.81420  Biso   1.000  C
  C244     1.0000 0.36350  0.38550  0.88620  Biso   1.000  C
  C245     1.0000 0.29030  0.37740  0.90520  Biso   1.000  C
  H284     1.0000 0.25100  0.38890  0.87200  Biso   1.000  H
  C246     1.0000 0.28900  0.34990  0.98120  Biso   1.000  C
  H285     1.0000 0.24780  0.33940  0.01170  Biso   1.000  H
  C247     1.0000 0.35550  0.34010  0.00560  Biso   1.000  C
  H286     1.0000 0.36770  0.32260  0.05760  Biso   1.000  H
  C248     1.0000 0.25810  0.52180  0.69770  Biso   1.000  C
  H287     1.0000 0.23470  0.56590  0.70390  Biso   1.000  H
  C249     1.0000 0.30670  0.49840  0.75820  Biso   1.000  C
  H288     1.0000 0.31350  0.52640  0.80520  Biso   1.000  H
  C250     1.0000 0.34440  0.43570  0.74970  Biso   1.000  C
  C251     1.0000 0.33300  0.39920  0.68040  Biso   1.000  C
  H289     1.0000 0.35880  0.35710  0.66980  Biso   1.000  H
  C252     1.0000 0.28310  0.42380  0.62440  Biso   1.000  C
  H290     1.0000 0.27590  0.39640  0.57690  Biso   1.000  H
  C253     1.0000 0.52480  0.35800  0.07670  Biso   1.000  C
  C254     1.0000 0.58360  0.38410  0.03220  Biso   1.000  C
  C255     1.0000 0.61960  0.32520  0.99800  Biso   1.000  C
  C256     1.0000 0.58310  0.26270  0.02130  Biso   1.000  C
  C257     1.0000 0.52440  0.28300  0.06990  Biso   1.000  C
  C258     1.0000 0.47190  0.40210  0.12300  Biso   1.000  C
  H291     1.0000 0.49700  0.43260  0.16150  Biso   1.000  H
  H292     1.0000 0.44490  0.43150  0.08510  Biso   1.000  H
  H293     1.0000 0.43950  0.37100  0.15250  Biso   1.000  H
  C259     1.0000 0.60420  0.46090  0.02290  Biso   1.000  C
  H294     1.0000 0.63560  0.47450  0.06740  Biso   1.000  H
  H295     1.0000 0.62880  0.46750  0.97130  Biso   1.000  H
  H296     1.0000 0.56170  0.49040  0.02410  Biso   1.000  H
  C260     1.0000 0.68530  0.32850  0.94590  Biso   1.000  C
  H297     1.0000 0.67550  0.30680  0.89330  Biso   1.000  H
  H298     1.0000 0.69910  0.37800  0.93810  Biso   1.000  H
  H299     1.0000 0.72380  0.30290  0.97270  Biso   1.000  H
  C261     1.0000 0.60300  0.18800  0.99840  Biso   1.000  C
  H300     1.0000 0.63590  0.16880  0.03860  Biso   1.000  H
  H301     1.0000 0.56030  0.15850  0.99650  Biso   1.000  H
  H302     1.0000 0.62570  0.18800  0.94510  Biso   1.000  H
  C262     1.0000 0.47110  0.23350  0.10780  Biso   1.000  C
  H303     1.0000 0.44180  0.25970  0.14650  Biso   1.000  H
  H304     1.0000 0.44090  0.21330  0.06550  Biso   1.000  H
  H305     1.0000 0.49600  0.19530  0.13610  Biso   1.000  H
  C263     1.0000 0.54780  0.37260  0.07530  Biso   1.000  C
  C264     1.0000 0.60020  0.38930  0.01600  Biso   1.000  C
  C265     1.0000 0.62030  0.32510  0.97660  Biso   1.000  C
  C266     1.0000 0.58030  0.26870  0.01170  Biso   1.000  C
  C267     1.0000 0.53550  0.29810  0.07260  Biso   1.000  C
  C268     1.0000 0.51160  0.42490  0.13140  Biso   1.000  C
  H306     1.0000 0.50510  0.47000  0.10320  Biso   1.000  H
  H307     1.0000 0.46540  0.40610  0.14760  Biso   1.000  H
  H308     1.0000 0.54090  0.43230  0.17950  Biso   1.000  H
  C269     1.0000 0.62940  0.46250  0.99790  Biso   1.000  C
  H309     1.0000 0.61980  0.47460  0.94130  Biso   1.000  H
  H310     1.0000 0.60670  0.49720  0.03340  Biso   1.000  H
  H311     1.0000 0.68060  0.46280  0.00740  Biso   1.000  H
  C270     1.0000 0.67460  0.31800  0.90940  Biso   1.000  C
  H312     1.0000 0.72200  0.31420  0.93300  Biso   1.000  H
  H313     1.0000 0.66440  0.27540  0.87750  Biso   1.000  H
  H314     1.0000 0.67240  0.35970  0.87430  Biso   1.000  H
  C271     1.0000 0.58470  0.19110  0.98820  Biso   1.000  C
  H315     1.0000 0.62040  0.16750  0.02160  Biso   1.000  H
  H316     1.0000 0.53860  0.16870  0.99680  Biso   1.000  H
  H317     1.0000 0.59780  0.18720  0.93100  Biso   1.000  H
  C272     1.0000 0.48390  0.25720  0.12540  Biso   1.000  C
  H318     1.0000 0.50650  0.24580  0.17710  Biso   1.000  H
  H319     1.0000 0.44180  0.28620  0.13510  Biso   1.000  H
  H320     1.0000 0.47020  0.21340  0.09790  Biso   1.000  H
