data_image0
_cell_length_a       24.226
_cell_length_b       20.495
_cell_length_c       12.7686
_cell_angle_alpha    90
_cell_angle_beta     90
_cell_angle_gamma    90

_symmetry_space_group_name_H-M    "P 1"
_symmetry_int_tables_number       1

loop_
  _symmetry_equiv_pos_as_xyz
  'x, y, z'

loop_
  _atom_site_label
  _atom_site_occupancy
  _atom_site_fract_x
  _atom_site_fract_y
  _atom_site_fract_z
  _atom_site_thermal_displace_type
  _atom_site_B_iso_or_equiv
  _atom_site_type_symbol
  O1       1.0000 0.20426  0.05630  0.10357  Biso   1.000  O
  O2       1.0000 0.18925  0.11587  0.24124  Biso   1.000  O
  N1       1.0000 0.19663  0.97498  0.32041  Biso   1.000  N
  N2       1.0000 0.12672  0.90783  0.35680  Biso   1.000  N
  N3       1.0000 0.16793  0.89981  0.42927  Biso   1.000  N
  C1       1.0000 0.14560  0.95498  0.28970  Biso   1.000  C
  H1       1.0000 0.12650  0.97090  0.23190  Biso   1.000  H
  C2       1.0000 0.20849  0.94065  0.40357  Biso   1.000  C
  H2       1.0000 0.24140  0.94430  0.44050  Biso   1.000  H
  C3       1.0000 0.16826  0.85352  0.51625  Biso   1.000  C
  H3       1.0000 0.13210  0.83340  0.52140  Biso   1.000  H
  H4       1.0000 0.17480  0.87720  0.58080  Biso   1.000  H
  C4       1.0000 0.21106  0.80055  0.50611  Biso   1.000  C
  C5       1.0000 0.23354  0.78172  0.41062  Biso   1.000  C
  H5       1.0000 0.22280  0.80320  0.34970  Biso   1.000  H
  C6       1.0000 0.22851  0.76831  0.59501  Biso   1.000  C
  H6       1.0000 0.21440  0.78050  0.65990  Biso   1.000  H
  C7       1.0000 0.17963  0.10162  0.14747  Biso   1.000  C
  C8       1.0000 0.13727  0.14164  0.08974  Biso   1.000  C
  C9       1.0000 0.12349  0.12655  0.98772  Biso   1.000  C
  H7       1.0000 0.14150  0.09300  0.95250  Biso   1.000  H
  C10      1.0000 0.08189  0.16255  0.93800  Biso   1.000  C
  H8       1.0000 0.07150  0.15270  0.86970  Biso   1.000  H
  C11      1.0000 0.05670  0.21235  0.99120  Biso   1.000  C
  C12      1.0000 0.07105  0.22826  0.09150  Biso   1.000  C
  H9       1.0000 0.05370  0.26260  0.12600  Biso   1.000  H
  C13      1.0000 0.11183  0.19234  0.14060  Biso   1.000  C
  H10      1.0000 0.12210  0.20270  0.20880  Biso   1.000  H
  O3       1.0000 0.79574  0.44370  0.60357  Biso   1.000  O
  O4       1.0000 0.81075  0.38413  0.74124  Biso   1.000  O
  N4       1.0000 0.80337  0.52502  0.82041  Biso   1.000  N
  N5       1.0000 0.87328  0.59217  0.85680  Biso   1.000  N
  N6       1.0000 0.83207  0.60019  0.92927  Biso   1.000  N
  C14      1.0000 0.85440  0.54502  0.78970  Biso   1.000  C
  H11      1.0000 0.87350  0.52910  0.73190  Biso   1.000  H
  C15      1.0000 0.79151  0.55935  0.90357  Biso   1.000  C
  H12      1.0000 0.75860  0.55570  0.94050  Biso   1.000  H
  C16      1.0000 0.83174  0.64648  0.01625  Biso   1.000  C
  H13      1.0000 0.86790  0.66660  0.02140  Biso   1.000  H
  H14      1.0000 0.82520  0.62280  0.08080  Biso   1.000  H
  C17      1.0000 0.78894  0.69945  0.00611  Biso   1.000  C
  C18      1.0000 0.76646  0.71828  0.91062  Biso   1.000  C
  H15      1.0000 0.77720  0.69680  0.84970  Biso   1.000  H
  C19      1.0000 0.77149  0.73169  0.09501  Biso   1.000  C
  H16      1.0000 0.78560  0.71950  0.15990  Biso   1.000  H
  C20      1.0000 0.82037  0.39838  0.64747  Biso   1.000  C
  C21      1.0000 0.86273  0.35836  0.58974  Biso   1.000  C
  C22      1.0000 0.87651  0.37345  0.48772  Biso   1.000  C
  H17      1.0000 0.85850  0.40700  0.45250  Biso   1.000  H
  C23      1.0000 0.91811  0.33745  0.43800  Biso   1.000  C
  H18      1.0000 0.92850  0.34730  0.36970  Biso   1.000  H
  C24      1.0000 0.94330  0.28765  0.49120  Biso   1.000  C
  C25      1.0000 0.92895  0.27174  0.59150  Biso   1.000  C
  H19      1.0000 0.94630  0.23740  0.62600  Biso   1.000  H
  C26      1.0000 0.88817  0.30766  0.64060  Biso   1.000  C
  H20      1.0000 0.87790  0.29730  0.70880  Biso   1.000  H
  O5       1.0000 0.29574  0.05630  0.39643  Biso   1.000  O
  O6       1.0000 0.31075  0.11587  0.25876  Biso   1.000  O
  N7       1.0000 0.30337  0.97498  0.17959  Biso   1.000  N
  N8       1.0000 0.37328  0.90783  0.14320  Biso   1.000  N
  N9       1.0000 0.33207  0.89981  0.07073  Biso   1.000  N
  C27      1.0000 0.35440  0.95498  0.21030  Biso   1.000  C
  H21      1.0000 0.37350  0.97090  0.26810  Biso   1.000  H
  C28      1.0000 0.29151  0.94065  0.09643  Biso   1.000  C
  H22      1.0000 0.25860  0.94430  0.05950  Biso   1.000  H
  C29      1.0000 0.33174  0.85352  0.98375  Biso   1.000  C
  H23      1.0000 0.36790  0.83340  0.97860  Biso   1.000  H
  H24      1.0000 0.32520  0.87720  0.91920  Biso   1.000  H
  C30      1.0000 0.28894  0.80055  0.99389  Biso   1.000  C
  C31      1.0000 0.26646  0.78172  0.08938  Biso   1.000  C
  H25      1.0000 0.27720  0.80320  0.15030  Biso   1.000  H
  C32      1.0000 0.27149  0.76831  0.90499  Biso   1.000  C
  H26      1.0000 0.28560  0.78050  0.84010  Biso   1.000  H
  C33      1.0000 0.32037  0.10162  0.35253  Biso   1.000  C
  C34      1.0000 0.36273  0.14164  0.41026  Biso   1.000  C
  C35      1.0000 0.37651  0.12655  0.51228  Biso   1.000  C
  H27      1.0000 0.35850  0.09300  0.54750  Biso   1.000  H
  C36      1.0000 0.41811  0.16255  0.56200  Biso   1.000  C
  H28      1.0000 0.42850  0.15270  0.63030  Biso   1.000  H
  C37      1.0000 0.44330  0.21235  0.50880  Biso   1.000  C
  C38      1.0000 0.42895  0.22826  0.40850  Biso   1.000  C
  H29      1.0000 0.44630  0.26260  0.37400  Biso   1.000  H
  C39      1.0000 0.38817  0.19234  0.35940  Biso   1.000  C
  H30      1.0000 0.37790  0.20270  0.29120  Biso   1.000  H
  O7       1.0000 0.70426  0.44370  0.89643  Biso   1.000  O
  O8       1.0000 0.68925  0.38413  0.75876  Biso   1.000  O
  N10      1.0000 0.69663  0.52502  0.67959  Biso   1.000  N
  N11      1.0000 0.62672  0.59217  0.64320  Biso   1.000  N
  N12      1.0000 0.66793  0.60019  0.57073  Biso   1.000  N
  C40      1.0000 0.64560  0.54502  0.71030  Biso   1.000  C
  H31      1.0000 0.62650  0.52910  0.76810  Biso   1.000  H
  C41      1.0000 0.70849  0.55935  0.59643  Biso   1.000  C
  H32      1.0000 0.74140  0.55570  0.55950  Biso   1.000  H
  C42      1.0000 0.66826  0.64648  0.48375  Biso   1.000  C
  H33      1.0000 0.63210  0.66660  0.47860  Biso   1.000  H
  H34      1.0000 0.67480  0.62280  0.41920  Biso   1.000  H
  C43      1.0000 0.71106  0.69945  0.49389  Biso   1.000  C
  C44      1.0000 0.73354  0.71828  0.58938  Biso   1.000  C
  H35      1.0000 0.72280  0.69680  0.65030  Biso   1.000  H
  C45      1.0000 0.72851  0.73169  0.40499  Biso   1.000  C
  H36      1.0000 0.71440  0.71950  0.34010  Biso   1.000  H
  C46      1.0000 0.67963  0.39838  0.85253  Biso   1.000  C
  C47      1.0000 0.63727  0.35836  0.91026  Biso   1.000  C
  C48      1.0000 0.62349  0.37345  0.01228  Biso   1.000  C
  H37      1.0000 0.64150  0.40700  0.04750  Biso   1.000  H
  C49      1.0000 0.58189  0.33745  0.06200  Biso   1.000  C
  H38      1.0000 0.57150  0.34730  0.13030  Biso   1.000  H
  C50      1.0000 0.55670  0.28765  0.00880  Biso   1.000  C
  C51      1.0000 0.57105  0.27174  0.90850  Biso   1.000  C
  H39      1.0000 0.55370  0.23740  0.87400  Biso   1.000  H
  C52      1.0000 0.61183  0.30766  0.85940  Biso   1.000  C
  H40      1.0000 0.62210  0.29730  0.79120  Biso   1.000  H
  O9       1.0000 0.29574  0.44370  0.89643  Biso   1.000  O
  O10      1.0000 0.31075  0.38413  0.75876  Biso   1.000  O
  N13      1.0000 0.30337  0.52502  0.67959  Biso   1.000  N
  N14      1.0000 0.37328  0.59217  0.64320  Biso   1.000  N
  N15      1.0000 0.33207  0.60019  0.57073  Biso   1.000  N
  C53      1.0000 0.35440  0.54502  0.71030  Biso   1.000  C
  H41      1.0000 0.37350  0.52910  0.76810  Biso   1.000  H
  C54      1.0000 0.29151  0.55935  0.59643  Biso   1.000  C
  H42      1.0000 0.25860  0.55570  0.55950  Biso   1.000  H
  C55      1.0000 0.33174  0.64648  0.48375  Biso   1.000  C
  H43      1.0000 0.36790  0.66660  0.47860  Biso   1.000  H
  H44      1.0000 0.32520  0.62280  0.41920  Biso   1.000  H
  C56      1.0000 0.28894  0.69945  0.49389  Biso   1.000  C
  C57      1.0000 0.26646  0.71828  0.58938  Biso   1.000  C
  H45      1.0000 0.27720  0.69680  0.65030  Biso   1.000  H
  C58      1.0000 0.27149  0.73169  0.40499  Biso   1.000  C
  H46      1.0000 0.28560  0.71950  0.34010  Biso   1.000  H
  C59      1.0000 0.32037  0.39838  0.85253  Biso   1.000  C
  C60      1.0000 0.36273  0.35836  0.91026  Biso   1.000  C
  C61      1.0000 0.37651  0.37345  0.01228  Biso   1.000  C
  H47      1.0000 0.35850  0.40700  0.04750  Biso   1.000  H
  C62      1.0000 0.41811  0.33745  0.06200  Biso   1.000  C
  H48      1.0000 0.42850  0.34730  0.13030  Biso   1.000  H
  C63      1.0000 0.44330  0.28765  0.00880  Biso   1.000  C
  C64      1.0000 0.42895  0.27174  0.90850  Biso   1.000  C
  H49      1.0000 0.44630  0.23740  0.87400  Biso   1.000  H
  C65      1.0000 0.38817  0.30766  0.85940  Biso   1.000  C
  H50      1.0000 0.37790  0.29730  0.79120  Biso   1.000  H
  O11      1.0000 0.70426  0.05630  0.39643  Biso   1.000  O
  O12      1.0000 0.68925  0.11587  0.25876  Biso   1.000  O
  N16      1.0000 0.69663  0.97498  0.17959  Biso   1.000  N
  N17      1.0000 0.62672  0.90783  0.14320  Biso   1.000  N
  N18      1.0000 0.66793  0.89981  0.07073  Biso   1.000  N
  C66      1.0000 0.64560  0.95498  0.21030  Biso   1.000  C
  H51      1.0000 0.62650  0.97090  0.26810  Biso   1.000  H
  C67      1.0000 0.70849  0.94065  0.09643  Biso   1.000  C
  H52      1.0000 0.74140  0.94430  0.05950  Biso   1.000  H
  C68      1.0000 0.66826  0.85352  0.98375  Biso   1.000  C
  H53      1.0000 0.63210  0.83340  0.97860  Biso   1.000  H
  H54      1.0000 0.67480  0.87720  0.91920  Biso   1.000  H
  C69      1.0000 0.71106  0.80055  0.99389  Biso   1.000  C
  C70      1.0000 0.73354  0.78172  0.08938  Biso   1.000  C
  H55      1.0000 0.72280  0.80320  0.15030  Biso   1.000  H
  C71      1.0000 0.72851  0.76831  0.90499  Biso   1.000  C
  H56      1.0000 0.71440  0.78050  0.84010  Biso   1.000  H
  C72      1.0000 0.67963  0.10162  0.35253  Biso   1.000  C
  C73      1.0000 0.63727  0.14164  0.41026  Biso   1.000  C
  C74      1.0000 0.62349  0.12655  0.51228  Biso   1.000  C
  H57      1.0000 0.64150  0.09300  0.54750  Biso   1.000  H
  C75      1.0000 0.58189  0.16255  0.56200  Biso   1.000  C
  H58      1.0000 0.57150  0.15270  0.63030  Biso   1.000  H
  C76      1.0000 0.55670  0.21235  0.50880  Biso   1.000  C
  C77      1.0000 0.57105  0.22826  0.40850  Biso   1.000  C
  H59      1.0000 0.55370  0.26260  0.37400  Biso   1.000  H
  C78      1.0000 0.61183  0.19234  0.35940  Biso   1.000  C
  H60      1.0000 0.62210  0.20270  0.29120  Biso   1.000  H
  O13      1.0000 0.20426  0.44370  0.60357  Biso   1.000  O
  O14      1.0000 0.18925  0.38413  0.74124  Biso   1.000  O
  N19      1.0000 0.19663  0.52502  0.82041  Biso   1.000  N
  N20      1.0000 0.12672  0.59217  0.85680  Biso   1.000  N
  N21      1.0000 0.16793  0.60019  0.92927  Biso   1.000  N
  C79      1.0000 0.14560  0.54502  0.78970  Biso   1.000  C
  H61      1.0000 0.12650  0.52910  0.73190  Biso   1.000  H
  C80      1.0000 0.20849  0.55935  0.90357  Biso   1.000  C
  H62      1.0000 0.24140  0.55570  0.94050  Biso   1.000  H
  C81      1.0000 0.16826  0.64648  0.01625  Biso   1.000  C
  H63      1.0000 0.13210  0.66660  0.02140  Biso   1.000  H
  H64      1.0000 0.17480  0.62280  0.08080  Biso   1.000  H
  C82      1.0000 0.21106  0.69945  0.00611  Biso   1.000  C
  C83      1.0000 0.23354  0.71828  0.91062  Biso   1.000  C
  H65      1.0000 0.22280  0.69680  0.84970  Biso   1.000  H
  C84      1.0000 0.22851  0.73169  0.09501  Biso   1.000  C
  H66      1.0000 0.21440  0.71950  0.15990  Biso   1.000  H
  C85      1.0000 0.17963  0.39838  0.64747  Biso   1.000  C
  C86      1.0000 0.13727  0.35836  0.58974  Biso   1.000  C
  C87      1.0000 0.12349  0.37345  0.48772  Biso   1.000  C
  H67      1.0000 0.14150  0.40700  0.45250  Biso   1.000  H
  C88      1.0000 0.08189  0.33745  0.43800  Biso   1.000  C
  H68      1.0000 0.07150  0.34730  0.36970  Biso   1.000  H
  C89      1.0000 0.05670  0.28765  0.49120  Biso   1.000  C
  C90      1.0000 0.07105  0.27174  0.59150  Biso   1.000  C
  H69      1.0000 0.05370  0.23740  0.62600  Biso   1.000  H
  C91      1.0000 0.11183  0.30766  0.64060  Biso   1.000  C
  H70      1.0000 0.12210  0.29730  0.70880  Biso   1.000  H
  O15      1.0000 0.79574  0.05630  0.10357  Biso   1.000  O
  O16      1.0000 0.81075  0.11587  0.24124  Biso   1.000  O
  N22      1.0000 0.80337  0.97498  0.32041  Biso   1.000  N
  N23      1.0000 0.87328  0.90783  0.35680  Biso   1.000  N
  N24      1.0000 0.83207  0.89981  0.42927  Biso   1.000  N
  C92      1.0000 0.85440  0.95498  0.28970  Biso   1.000  C
  H71      1.0000 0.87350  0.97090  0.23190  Biso   1.000  H
  C93      1.0000 0.79151  0.94065  0.40357  Biso   1.000  C
  H72      1.0000 0.75860  0.94430  0.44050  Biso   1.000  H
  C94      1.0000 0.83174  0.85352  0.51625  Biso   1.000  C
  H73      1.0000 0.86790  0.83340  0.52140  Biso   1.000  H
  H74      1.0000 0.82520  0.87720  0.58080  Biso   1.000  H
  C95      1.0000 0.78894  0.80055  0.50611  Biso   1.000  C
  C96      1.0000 0.76646  0.78172  0.41062  Biso   1.000  C
  H75      1.0000 0.77720  0.80320  0.34970  Biso   1.000  H
  C97      1.0000 0.77149  0.76831  0.59501  Biso   1.000  C
  H76      1.0000 0.78560  0.78050  0.65990  Biso   1.000  H
  C98      1.0000 0.82037  0.10162  0.14747  Biso   1.000  C
  C99      1.0000 0.86273  0.14164  0.08974  Biso   1.000  C
  C100     1.0000 0.87651  0.12655  0.98772  Biso   1.000  C
  H77      1.0000 0.85850  0.09300  0.95250  Biso   1.000  H
  C101     1.0000 0.91811  0.16255  0.93800  Biso   1.000  C
  H78      1.0000 0.92850  0.15270  0.86970  Biso   1.000  H
  C102     1.0000 0.94330  0.21235  0.99120  Biso   1.000  C
  C103     1.0000 0.92895  0.22826  0.09150  Biso   1.000  C
  H79      1.0000 0.94630  0.26260  0.12600  Biso   1.000  H
  C104     1.0000 0.88817  0.19234  0.14060  Biso   1.000  C
  H80      1.0000 0.87790  0.20270  0.20880  Biso   1.000  H
  Co1      1.0000 0.25000  0.03941  0.25000  Biso   1.000  Co
  Co2      1.0000 0.75000  0.46059  0.75000  Biso   1.000  Co
  Co3      1.0000 0.25000  0.46059  0.75000  Biso   1.000  Co
  Co4      1.0000 0.75000  0.03941  0.25000  Biso   1.000  Co
  S1       1.0000 0.00000  0.25400  0.93394  Biso   1.000  S
  O17      1.0000 0.00000  0.32059  0.97370  Biso   1.000  O
  O18      1.0000 0.00000  0.24280  0.82340  Biso   1.000  O
  S2       1.0000 0.00000  0.24600  0.43394  Biso   1.000  S
  O19      1.0000 0.00000  0.17941  0.47370  Biso   1.000  O
  O20      1.0000 0.00000  0.25720  0.32340  Biso   1.000  O
  S3       1.0000 0.50000  0.25400  0.56606  Biso   1.000  S
  O21      1.0000 0.50000  0.32059  0.52630  Biso   1.000  O
  O22      1.0000 0.50000  0.24280  0.67660  Biso   1.000  O
  S4       1.0000 0.50000  0.24600  0.06606  Biso   1.000  S
  O23      1.0000 0.50000  0.17941  0.02630  Biso   1.000  O
  O24      1.0000 0.50000  0.25720  0.17660  Biso   1.000  O
  O25      1.0000 0.70426  0.55630  0.10357  Biso   1.000  O
  O26      1.0000 0.68925  0.61587  0.24124  Biso   1.000  O
  N25      1.0000 0.69663  0.47498  0.32041  Biso   1.000  N
  N26      1.0000 0.62672  0.40783  0.35680  Biso   1.000  N
  N27      1.0000 0.66793  0.39981  0.42927  Biso   1.000  N
  C105     1.0000 0.64560  0.45498  0.28970  Biso   1.000  C
  H81      1.0000 0.62650  0.47090  0.23190  Biso   1.000  H
  C106     1.0000 0.70849  0.44065  0.40357  Biso   1.000  C
  H82      1.0000 0.74140  0.44430  0.44050  Biso   1.000  H
  C107     1.0000 0.66826  0.35352  0.51625  Biso   1.000  C
  H83      1.0000 0.63210  0.33340  0.52140  Biso   1.000  H
  H84      1.0000 0.67480  0.37720  0.58080  Biso   1.000  H
  C108     1.0000 0.71106  0.30055  0.50611  Biso   1.000  C
  C109     1.0000 0.73354  0.28172  0.41062  Biso   1.000  C
  H85      1.0000 0.72280  0.30320  0.34970  Biso   1.000  H
  C110     1.0000 0.72851  0.26831  0.59501  Biso   1.000  C
  H86      1.0000 0.71440  0.28050  0.65990  Biso   1.000  H
  C111     1.0000 0.67963  0.60162  0.14747  Biso   1.000  C
  C112     1.0000 0.63727  0.64164  0.08974  Biso   1.000  C
  C113     1.0000 0.62349  0.62655  0.98772  Biso   1.000  C
  H87      1.0000 0.64150  0.59300  0.95250  Biso   1.000  H
  C114     1.0000 0.58189  0.66255  0.93800  Biso   1.000  C
  H88      1.0000 0.57150  0.65270  0.86970  Biso   1.000  H
  C115     1.0000 0.55670  0.71235  0.99120  Biso   1.000  C
  C116     1.0000 0.57105  0.72826  0.09150  Biso   1.000  C
  H89      1.0000 0.55370  0.76260  0.12600  Biso   1.000  H
  C117     1.0000 0.61183  0.69234  0.14060  Biso   1.000  C
  H90      1.0000 0.62210  0.70270  0.20880  Biso   1.000  H
  O27      1.0000 0.29574  0.94370  0.60357  Biso   1.000  O
  O28      1.0000 0.31075  0.88413  0.74124  Biso   1.000  O
  N28      1.0000 0.30337  0.02502  0.82041  Biso   1.000  N
  N29      1.0000 0.37328  0.09217  0.85680  Biso   1.000  N
  N30      1.0000 0.33207  0.10019  0.92927  Biso   1.000  N
  C118     1.0000 0.35440  0.04502  0.78970  Biso   1.000  C
  H91      1.0000 0.37350  0.02910  0.73190  Biso   1.000  H
  C119     1.0000 0.29151  0.05935  0.90357  Biso   1.000  C
  H92      1.0000 0.25860  0.05570  0.94050  Biso   1.000  H
  C120     1.0000 0.33174  0.14648  0.01625  Biso   1.000  C
  H93      1.0000 0.36790  0.16660  0.02140  Biso   1.000  H
  H94      1.0000 0.32520  0.12280  0.08080  Biso   1.000  H
  C121     1.0000 0.28894  0.19945  0.00611  Biso   1.000  C
  C122     1.0000 0.26646  0.21828  0.91062  Biso   1.000  C
  H95      1.0000 0.27720  0.19680  0.84970  Biso   1.000  H
  C123     1.0000 0.27149  0.23169  0.09501  Biso   1.000  C
  H96      1.0000 0.28560  0.21950  0.15990  Biso   1.000  H
  C124     1.0000 0.32037  0.89838  0.64747  Biso   1.000  C
  C125     1.0000 0.36273  0.85836  0.58974  Biso   1.000  C
  C126     1.0000 0.37651  0.87345  0.48772  Biso   1.000  C
  H97      1.0000 0.35850  0.90700  0.45250  Biso   1.000  H
  C127     1.0000 0.41811  0.83745  0.43800  Biso   1.000  C
  H98      1.0000 0.42850  0.84730  0.36970  Biso   1.000  H
  C128     1.0000 0.44330  0.78765  0.49120  Biso   1.000  C
  C129     1.0000 0.42895  0.77174  0.59150  Biso   1.000  C
  H99      1.0000 0.44630  0.73740  0.62600  Biso   1.000  H
  C130     1.0000 0.38817  0.80766  0.64060  Biso   1.000  C
  H100     1.0000 0.37790  0.79730  0.70880  Biso   1.000  H
  O29      1.0000 0.79574  0.55630  0.39643  Biso   1.000  O
  O30      1.0000 0.81075  0.61587  0.25876  Biso   1.000  O
  N31      1.0000 0.80337  0.47498  0.17959  Biso   1.000  N
  N32      1.0000 0.87328  0.40783  0.14320  Biso   1.000  N
  N33      1.0000 0.83207  0.39981  0.07073  Biso   1.000  N
  C131     1.0000 0.85440  0.45498  0.21030  Biso   1.000  C
  H101     1.0000 0.87350  0.47090  0.26810  Biso   1.000  H
  C132     1.0000 0.79151  0.44065  0.09643  Biso   1.000  C
  H102     1.0000 0.75860  0.44430  0.05950  Biso   1.000  H
  C133     1.0000 0.83174  0.35352  0.98375  Biso   1.000  C
  H103     1.0000 0.86790  0.33340  0.97860  Biso   1.000  H
  H104     1.0000 0.82520  0.37720  0.91920  Biso   1.000  H
  C134     1.0000 0.78894  0.30055  0.99389  Biso   1.000  C
  C135     1.0000 0.76646  0.28172  0.08938  Biso   1.000  C
  H105     1.0000 0.77720  0.30320  0.15030  Biso   1.000  H
  C136     1.0000 0.77149  0.26831  0.90499  Biso   1.000  C
  H106     1.0000 0.78560  0.28050  0.84010  Biso   1.000  H
  C137     1.0000 0.82037  0.60162  0.35253  Biso   1.000  C
  C138     1.0000 0.86273  0.64164  0.41026  Biso   1.000  C
  C139     1.0000 0.87651  0.62655  0.51228  Biso   1.000  C
  H107     1.0000 0.85850  0.59300  0.54750  Biso   1.000  H
  C140     1.0000 0.91811  0.66255  0.56200  Biso   1.000  C
  H108     1.0000 0.92850  0.65270  0.63030  Biso   1.000  H
  C141     1.0000 0.94330  0.71235  0.50880  Biso   1.000  C
  C142     1.0000 0.92895  0.72826  0.40850  Biso   1.000  C
  H109     1.0000 0.94630  0.76260  0.37400  Biso   1.000  H
  C143     1.0000 0.88817  0.69234  0.35940  Biso   1.000  C
  H110     1.0000 0.87790  0.70270  0.29120  Biso   1.000  H
  O31      1.0000 0.20426  0.94370  0.89643  Biso   1.000  O
  O32      1.0000 0.18925  0.88413  0.75876  Biso   1.000  O
  N34      1.0000 0.19663  0.02502  0.67959  Biso   1.000  N
  N35      1.0000 0.12672  0.09217  0.64320  Biso   1.000  N
  N36      1.0000 0.16793  0.10019  0.57073  Biso   1.000  N
  C144     1.0000 0.14560  0.04502  0.71030  Biso   1.000  C
  H111     1.0000 0.12650  0.02910  0.76810  Biso   1.000  H
  C145     1.0000 0.20849  0.05935  0.59643  Biso   1.000  C
  H112     1.0000 0.24140  0.05570  0.55950  Biso   1.000  H
  C146     1.0000 0.16826  0.14648  0.48375  Biso   1.000  C
  H113     1.0000 0.13210  0.16660  0.47860  Biso   1.000  H
  H114     1.0000 0.17480  0.12280  0.41920  Biso   1.000  H
  C147     1.0000 0.21106  0.19945  0.49389  Biso   1.000  C
  C148     1.0000 0.23354  0.21828  0.58938  Biso   1.000  C
  H115     1.0000 0.22280  0.19680  0.65030  Biso   1.000  H
  C149     1.0000 0.22851  0.23169  0.40499  Biso   1.000  C
  H116     1.0000 0.21440  0.21950  0.34010  Biso   1.000  H
  C150     1.0000 0.17963  0.89838  0.85253  Biso   1.000  C
  C151     1.0000 0.13727  0.85836  0.91026  Biso   1.000  C
  C152     1.0000 0.12349  0.87345  0.01228  Biso   1.000  C
  H117     1.0000 0.14150  0.90700  0.04750  Biso   1.000  H
  C153     1.0000 0.08189  0.83745  0.06200  Biso   1.000  C
  H118     1.0000 0.07150  0.84730  0.13030  Biso   1.000  H
  C154     1.0000 0.05670  0.78765  0.00880  Biso   1.000  C
  C155     1.0000 0.07105  0.77174  0.90850  Biso   1.000  C
  H119     1.0000 0.05370  0.73740  0.87400  Biso   1.000  H
  C156     1.0000 0.11183  0.80766  0.85940  Biso   1.000  C
  H120     1.0000 0.12210  0.79730  0.79120  Biso   1.000  H
  O33      1.0000 0.79574  0.94370  0.89643  Biso   1.000  O
  O34      1.0000 0.81075  0.88413  0.75876  Biso   1.000  O
  N37      1.0000 0.80337  0.02502  0.67959  Biso   1.000  N
  N38      1.0000 0.87328  0.09217  0.64320  Biso   1.000  N
  N39      1.0000 0.83207  0.10019  0.57073  Biso   1.000  N
  C157     1.0000 0.85440  0.04502  0.71030  Biso   1.000  C
  H121     1.0000 0.87350  0.02910  0.76810  Biso   1.000  H
  C158     1.0000 0.79151  0.05935  0.59643  Biso   1.000  C
  H122     1.0000 0.75860  0.05570  0.55950  Biso   1.000  H
  C159     1.0000 0.83174  0.14648  0.48375  Biso   1.000  C
  H123     1.0000 0.86790  0.16660  0.47860  Biso   1.000  H
  H124     1.0000 0.82520  0.12280  0.41920  Biso   1.000  H
  C160     1.0000 0.78894  0.19945  0.49389  Biso   1.000  C
  C161     1.0000 0.76646  0.21828  0.58938  Biso   1.000  C
  H125     1.0000 0.77720  0.19680  0.65030  Biso   1.000  H
  C162     1.0000 0.77149  0.23169  0.40499  Biso   1.000  C
  H126     1.0000 0.78560  0.21950  0.34010  Biso   1.000  H
  C163     1.0000 0.82037  0.89838  0.85253  Biso   1.000  C
  C164     1.0000 0.86273  0.85836  0.91026  Biso   1.000  C
  C165     1.0000 0.87651  0.87345  0.01228  Biso   1.000  C
  H127     1.0000 0.85850  0.90700  0.04750  Biso   1.000  H
  C166     1.0000 0.91811  0.83745  0.06200  Biso   1.000  C
  H128     1.0000 0.92850  0.84730  0.13030  Biso   1.000  H
  C167     1.0000 0.94330  0.78765  0.00880  Biso   1.000  C
  C168     1.0000 0.92895  0.77174  0.90850  Biso   1.000  C
  H129     1.0000 0.94630  0.73740  0.87400  Biso   1.000  H
  C169     1.0000 0.88817  0.80766  0.85940  Biso   1.000  C
  H130     1.0000 0.87790  0.79730  0.79120  Biso   1.000  H
  O35      1.0000 0.20426  0.55630  0.39643  Biso   1.000  O
  O36      1.0000 0.18925  0.61587  0.25876  Biso   1.000  O
  N40      1.0000 0.19663  0.47498  0.17959  Biso   1.000  N
  N41      1.0000 0.12672  0.40783  0.14320  Biso   1.000  N
  N42      1.0000 0.16793  0.39981  0.07073  Biso   1.000  N
  C170     1.0000 0.14560  0.45498  0.21030  Biso   1.000  C
  H131     1.0000 0.12650  0.47090  0.26810  Biso   1.000  H
  C171     1.0000 0.20849  0.44065  0.09643  Biso   1.000  C
  H132     1.0000 0.24140  0.44430  0.05950  Biso   1.000  H
  C172     1.0000 0.16826  0.35352  0.98375  Biso   1.000  C
  H133     1.0000 0.13210  0.33340  0.97860  Biso   1.000  H
  H134     1.0000 0.17480  0.37720  0.91920  Biso   1.000  H
  C173     1.0000 0.21106  0.30055  0.99389  Biso   1.000  C
  C174     1.0000 0.23354  0.28172  0.08938  Biso   1.000  C
  H135     1.0000 0.22280  0.30320  0.15030  Biso   1.000  H
  C175     1.0000 0.22851  0.26831  0.90499  Biso   1.000  C
  H136     1.0000 0.21440  0.28050  0.84010  Biso   1.000  H
  C176     1.0000 0.17963  0.60162  0.35253  Biso   1.000  C
  C177     1.0000 0.13727  0.64164  0.41026  Biso   1.000  C
  C178     1.0000 0.12349  0.62655  0.51228  Biso   1.000  C
  H137     1.0000 0.14150  0.59300  0.54750  Biso   1.000  H
  C179     1.0000 0.08189  0.66255  0.56200  Biso   1.000  C
  H138     1.0000 0.07150  0.65270  0.63030  Biso   1.000  H
  C180     1.0000 0.05670  0.71235  0.50880  Biso   1.000  C
  C181     1.0000 0.07105  0.72826  0.40850  Biso   1.000  C
  H139     1.0000 0.05370  0.76260  0.37400  Biso   1.000  H
  C182     1.0000 0.11183  0.69234  0.35940  Biso   1.000  C
  H140     1.0000 0.12210  0.70270  0.29120  Biso   1.000  H
  O37      1.0000 0.70426  0.94370  0.60357  Biso   1.000  O
  O38      1.0000 0.68925  0.88413  0.74124  Biso   1.000  O
  N43      1.0000 0.69663  0.02502  0.82041  Biso   1.000  N
  N44      1.0000 0.62672  0.09217  0.85680  Biso   1.000  N
  N45      1.0000 0.66793  0.10019  0.92927  Biso   1.000  N
  C183     1.0000 0.64560  0.04502  0.78970  Biso   1.000  C
  H141     1.0000 0.62650  0.02910  0.73190  Biso   1.000  H
  C184     1.0000 0.70849  0.05935  0.90357  Biso   1.000  C
  H142     1.0000 0.74140  0.05570  0.94050  Biso   1.000  H
  C185     1.0000 0.66826  0.14648  0.01625  Biso   1.000  C
  H143     1.0000 0.63210  0.16660  0.02140  Biso   1.000  H
  H144     1.0000 0.67480  0.12280  0.08080  Biso   1.000  H
  C186     1.0000 0.71106  0.19945  0.00611  Biso   1.000  C
  C187     1.0000 0.73354  0.21828  0.91062  Biso   1.000  C
  H145     1.0000 0.72280  0.19680  0.84970  Biso   1.000  H
  C188     1.0000 0.72851  0.23169  0.09501  Biso   1.000  C
  H146     1.0000 0.71440  0.21950  0.15990  Biso   1.000  H
  C189     1.0000 0.67963  0.89838  0.64747  Biso   1.000  C
  C190     1.0000 0.63727  0.85836  0.58974  Biso   1.000  C
  C191     1.0000 0.62349  0.87345  0.48772  Biso   1.000  C
  H147     1.0000 0.64150  0.90700  0.45250  Biso   1.000  H
  C192     1.0000 0.58189  0.83745  0.43800  Biso   1.000  C
  H148     1.0000 0.57150  0.84730  0.36970  Biso   1.000  H
  C193     1.0000 0.55670  0.78765  0.49120  Biso   1.000  C
  C194     1.0000 0.57105  0.77174  0.59150  Biso   1.000  C
  H149     1.0000 0.55370  0.73740  0.62600  Biso   1.000  H
  C195     1.0000 0.61183  0.80766  0.64060  Biso   1.000  C
  H150     1.0000 0.62210  0.79730  0.70880  Biso   1.000  H
  O39      1.0000 0.29574  0.55630  0.10357  Biso   1.000  O
  O40      1.0000 0.31075  0.61587  0.24124  Biso   1.000  O
  N46      1.0000 0.30337  0.47498  0.32041  Biso   1.000  N
  N47      1.0000 0.37328  0.40783  0.35680  Biso   1.000  N
  N48      1.0000 0.33207  0.39981  0.42927  Biso   1.000  N
  C196     1.0000 0.35440  0.45498  0.28970  Biso   1.000  C
  H151     1.0000 0.37350  0.47090  0.23190  Biso   1.000  H
  C197     1.0000 0.29151  0.44065  0.40357  Biso   1.000  C
  H152     1.0000 0.25860  0.44430  0.44050  Biso   1.000  H
  C198     1.0000 0.33174  0.35352  0.51625  Biso   1.000  C
  H153     1.0000 0.36790  0.33340  0.52140  Biso   1.000  H
  H154     1.0000 0.32520  0.37720  0.58080  Biso   1.000  H
  C199     1.0000 0.28894  0.30055  0.50611  Biso   1.000  C
  C200     1.0000 0.26646  0.28172  0.41062  Biso   1.000  C
  H155     1.0000 0.27720  0.30320  0.34970  Biso   1.000  H
  C201     1.0000 0.27149  0.26831  0.59501  Biso   1.000  C
  H156     1.0000 0.28560  0.28050  0.65990  Biso   1.000  H
  C202     1.0000 0.32037  0.60162  0.14747  Biso   1.000  C
  C203     1.0000 0.36273  0.64164  0.08974  Biso   1.000  C
  C204     1.0000 0.37651  0.62655  0.98772  Biso   1.000  C
  H157     1.0000 0.35850  0.59300  0.95250  Biso   1.000  H
  C205     1.0000 0.41811  0.66255  0.93800  Biso   1.000  C
  H158     1.0000 0.42850  0.65270  0.86970  Biso   1.000  H
  C206     1.0000 0.44330  0.71235  0.99120  Biso   1.000  C
  C207     1.0000 0.42895  0.72826  0.09150  Biso   1.000  C
  H159     1.0000 0.44630  0.76260  0.12600  Biso   1.000  H
  C208     1.0000 0.38817  0.69234  0.14060  Biso   1.000  C
  H160     1.0000 0.37790  0.70270  0.20880  Biso   1.000  H
  Co5      1.0000 0.75000  0.53941  0.25000  Biso   1.000  Co
  Co6      1.0000 0.25000  0.96059  0.75000  Biso   1.000  Co
  Co7      1.0000 0.75000  0.96059  0.75000  Biso   1.000  Co
  Co8      1.0000 0.25000  0.53941  0.25000  Biso   1.000  Co
  S5       1.0000 0.50000  0.75400  0.93394  Biso   1.000  S
  O41      1.0000 0.50000  0.82059  0.97370  Biso   1.000  O
  O42      1.0000 0.50000  0.74280  0.82340  Biso   1.000  O
  S6       1.0000 0.50000  0.74600  0.43394  Biso   1.000  S
  O43      1.0000 0.50000  0.67941  0.47370  Biso   1.000  O
  O44      1.0000 0.50000  0.75720  0.32340  Biso   1.000  O
  S7       1.0000 0.00000  0.75400  0.56606  Biso   1.000  S
  O45      1.0000 0.00000  0.82059  0.52630  Biso   1.000  O
  O46      1.0000 0.00000  0.74280  0.67660  Biso   1.000  O
  S8       1.0000 0.00000  0.74600  0.06606  Biso   1.000  S
  O47      1.0000 0.00000  0.67941  0.02630  Biso   1.000  O
  O48      1.0000 0.00000  0.75720  0.17660  Biso   1.000  O
