data_image0
_cell_length_a       8.7097
_cell_length_b       14.2144
_cell_length_c       15.7201
_cell_angle_alpha    88.608
_cell_angle_beta     88.273
_cell_angle_gamma    86.682

_symmetry_space_group_name_H-M    "P 1"
_symmetry_int_tables_number       1

loop_
  _symmetry_equiv_pos_as_xyz
  'x, y, z'

loop_
  _atom_site_label
  _atom_site_occupancy
  _atom_site_fract_x
  _atom_site_fract_y
  _atom_site_fract_z
  _atom_site_thermal_displace_type
  _atom_site_B_iso_or_equiv
  _atom_site_type_symbol
  Co1      1.0000 0.44483  0.22827  0.28653  Biso   1.000  Co
  Co2      1.0000 0.28372  0.05435  0.37222  Biso   1.000  Co
  Co3      1.0000 0.59729  0.09743  0.48137  Biso   1.000  Co
  C1       1.0000 0.32760  0.07980  0.17990  Biso   1.000  C
  C2       1.0000 0.35890  0.79470  0.99810  Biso   1.000  C
  C3       1.0000 0.65140  0.50190  0.28080  Biso   1.000  C
  C4       1.0000 0.51870  0.69340  0.54080  Biso   1.000  C
  C5       1.0000 0.59590  0.59800  0.41100  Biso   1.000  C
  H1       1.0000 0.54270  0.64240  0.37690  Biso   1.000  H
  C6       1.0000 0.60030  0.61160  0.49750  Biso   1.000  C
  C7       1.0000 0.68070  0.54520  0.54790  Biso   1.000  C
  H2       1.0000 0.68150  0.55160  0.60660  Biso   1.000  H
  C8       1.0000 0.75960  0.46940  0.50960  Biso   1.000  C
  C9       1.0000 0.75550  0.45490  0.42370  Biso   1.000  C
  H3       1.0000 0.80890  0.40330  0.39920  Biso   1.000  H
  C10      1.0000 0.66890  0.51970  0.37410  Biso   1.000  C
  C11      1.0000 0.91800  0.43870  0.63180  Biso   1.000  C
  H4       1.0000 0.92230  0.50350  0.63650  Biso   1.000  H
  C12      1.0000 0.98750  0.37840  0.69220  Biso   1.000  C
  H5       1.0000 0.03850  0.40270  0.73720  Biso   1.000  H
  C13      1.0000 0.98000  0.28150  0.68480  Biso   1.000  C
  C14      1.0000 0.90720  0.24740  0.61550  Biso   1.000  C
  H6       1.0000 0.90400  0.18280  0.60820  Biso   1.000  H
  C15      1.0000 0.84020  0.30950  0.55780  Biso   1.000  C
  H7       1.0000 0.79080  0.28650  0.51160  Biso   1.000  H
  C16      1.0000 0.04540  0.21880  0.75160  Biso   1.000  C
  C17      1.0000 0.18030  0.24030  0.79120  Biso   1.000  C
  H8       1.0000 0.23110  0.29370  0.77410  Biso   1.000  H
  C18      1.0000 0.23770  0.18230  0.85570  Biso   1.000  C
  H9       1.0000 0.32770  0.19660  0.88180  Biso   1.000  H
  C19      1.0000 0.03760  0.08180  0.84250  Biso   1.000  C
  H10      1.0000 0.98920  0.02790  0.86060  Biso   1.000  H
  C20      1.0000 0.97860  0.13540  0.77780  Biso   1.000  C
  H11      1.0000 0.89280  0.11650  0.75040  Biso   1.000  H
  C21      1.0000 0.22620  0.04710  0.95250  Biso   1.000  C
  C22      1.0000 0.25350  0.09240  0.02670  Biso   1.000  C
  H12      1.0000 0.23500  0.15720  0.03140  Biso   1.000  H
  C23      1.0000 0.31000  0.03670  0.09410  Biso   1.000  C
  C24      1.0000 0.34300  0.94090  0.08500  Biso   1.000  C
  H13      1.0000 0.38220  0.90500  0.13040  Biso   1.000  H
  C25      1.0000 0.31770  0.89780  0.00800  Biso   1.000  C
  C26      1.0000 0.25370  0.95200  0.94120  Biso   1.000  C
  H14      1.0000 0.23030  0.92450  0.89050  Biso   1.000  H
  N1       1.0000 0.16510  0.10530  0.88130  Biso   1.000  N
  N2       1.0000 0.84430  0.40310  0.56650  Biso   1.000  N
  N3       1.0000 0.23730  0.20100  0.35380  Biso   1.000  N
  N4       1.0000 0.14650  0.25840  0.37920  Biso   1.000  N
  N5       1.0000 0.06180  0.31720  0.40290  Biso   1.000  N
  N6       1.0000 0.52900  0.09820  0.35150  Biso   1.000  N
  N7       1.0000 0.60880  0.04560  0.30450  Biso   1.000  N
  N8       1.0000 0.68120  0.99840  0.26120  Biso   1.000  N
  N9       1.0000 0.05040  0.03320  0.39780  Biso   1.000  N
  N10      1.0000 0.93710  0.07550  0.42050  Biso   1.000  N
  N11      1.0000 0.82510  0.12000  0.44220  Biso   1.000  N
  N12      1.0000 0.35820  0.05660  0.50310  Biso   1.000  N
  N13      1.0000 0.28310  0.10960  0.55100  Biso   1.000  N
  N14      1.0000 0.21900  0.16070  0.59370  Biso   1.000  N
  N15      1.0000 0.63930  0.08730  0.61270  Biso   1.000  N
  N16      1.0000 0.60450  0.14320  0.66630  Biso   1.000  N
  N17      1.0000 0.57160  0.19640  0.71870  Biso   1.000  N
  O1       1.0000 0.39070  0.15690  0.18050  Biso   1.000  O
  O2       1.0000 0.27630  0.03400  0.24260  Biso   1.000  O
  O3       1.0000 0.45820  0.75870  0.04680  Biso   1.000  O
  O4       1.0000 0.29170  0.75160  0.94270  Biso   1.000  O
  O5       1.0000 0.74480  0.44760  0.24320  Biso   1.000  O
  O6       1.0000 0.50500  0.52240  0.25600  Biso   1.000  O
  O7       1.0000 0.61500  0.56970  0.23390  Biso   1.000  O
  O8       1.0000 0.47480  0.76350  0.49600  Biso   1.000  O
  O9       1.0000 0.49720  0.68610  0.62020  Biso   1.000  O
  Co4      1.0000 0.55517  0.77173  0.71347  Biso   1.000  Co
  Co5      1.0000 0.71628  0.94565  0.62778  Biso   1.000  Co
  Co6      1.0000 0.40271  0.90257  0.51863  Biso   1.000  Co
  C27      1.0000 0.67240  0.92020  0.82010  Biso   1.000  C
  C28      1.0000 0.64110  0.20530  0.00190  Biso   1.000  C
  C29      1.0000 0.34860  0.49810  0.71920  Biso   1.000  C
  C30      1.0000 0.48130  0.30660  0.45920  Biso   1.000  C
  C31      1.0000 0.40410  0.40200  0.58900  Biso   1.000  C
  H15      1.0000 0.45730  0.35760  0.62310  Biso   1.000  H
  C32      1.0000 0.39970  0.38840  0.50250  Biso   1.000  C
  C33      1.0000 0.31930  0.45480  0.45210  Biso   1.000  C
  H16      1.0000 0.31850  0.44840  0.39340  Biso   1.000  H
  C34      1.0000 0.24040  0.53060  0.49040  Biso   1.000  C
  C35      1.0000 0.24450  0.54510  0.57630  Biso   1.000  C
  H17      1.0000 0.19110  0.59670  0.60080  Biso   1.000  H
  C36      1.0000 0.33110  0.48030  0.62590  Biso   1.000  C
  C37      1.0000 0.08200  0.56130  0.36820  Biso   1.000  C
  H18      1.0000 0.07770  0.49650  0.36350  Biso   1.000  H
  C38      1.0000 0.01250  0.62160  0.30780  Biso   1.000  C
  H19      1.0000 0.96150  0.59730  0.26280  Biso   1.000  H
  C39      1.0000 0.02000  0.71850  0.31520  Biso   1.000  C
  C40      1.0000 0.09280  0.75260  0.38450  Biso   1.000  C
  H20      1.0000 0.09600  0.81720  0.39180  Biso   1.000  H
  C41      1.0000 0.15980  0.69050  0.44220  Biso   1.000  C
  H21      1.0000 0.20920  0.71350  0.48840  Biso   1.000  H
  C42      1.0000 0.95460  0.78120  0.24840  Biso   1.000  C
  C43      1.0000 0.81970  0.75970  0.20880  Biso   1.000  C
  H22      1.0000 0.76890  0.70630  0.22590  Biso   1.000  H
  C44      1.0000 0.76230  0.81770  0.14430  Biso   1.000  C
  H23      1.0000 0.67230  0.80340  0.11820  Biso   1.000  H
  C45      1.0000 0.96240  0.91820  0.15750  Biso   1.000  C
  H24      1.0000 0.01080  0.97210  0.13940  Biso   1.000  H
  C46      1.0000 0.02140  0.86460  0.22220  Biso   1.000  C
  H25      1.0000 0.10720  0.88350  0.24960  Biso   1.000  H
  C47      1.0000 0.77380  0.95290  0.04750  Biso   1.000  C
  C48      1.0000 0.74650  0.90760  0.97330  Biso   1.000  C
  H26      1.0000 0.76500  0.84280  0.96860  Biso   1.000  H
  C49      1.0000 0.69000  0.96330  0.90590  Biso   1.000  C
  C50      1.0000 0.65700  0.05910  0.91500  Biso   1.000  C
  H27      1.0000 0.61780  0.09500  0.86960  Biso   1.000  H
  C51      1.0000 0.68230  0.10220  0.99200  Biso   1.000  C
  C52      1.0000 0.74630  0.04800  0.05880  Biso   1.000  C
  H28      1.0000 0.76970  0.07550  0.10950  Biso   1.000  H
  N18      1.0000 0.83490  0.89470  0.11870  Biso   1.000  N
  N19      1.0000 0.15570  0.59690  0.43350  Biso   1.000  N
  N20      1.0000 0.76270  0.79900  0.64620  Biso   1.000  N
  N21      1.0000 0.85350  0.74160  0.62080  Biso   1.000  N
  N22      1.0000 0.93820  0.68280  0.59710  Biso   1.000  N
  N23      1.0000 0.47100  0.90180  0.64850  Biso   1.000  N
  N24      1.0000 0.39120  0.95440  0.69550  Biso   1.000  N
  N25      1.0000 0.31880  0.00160  0.73880  Biso   1.000  N
  N26      1.0000 0.94960  0.96680  0.60220  Biso   1.000  N
  N27      1.0000 0.06290  0.92450  0.57950  Biso   1.000  N
  N28      1.0000 0.17490  0.88000  0.55780  Biso   1.000  N
  N29      1.0000 0.64180  0.94340  0.49690  Biso   1.000  N
  N30      1.0000 0.71690  0.89040  0.44900  Biso   1.000  N
  N31      1.0000 0.78100  0.83930  0.40630  Biso   1.000  N
  N32      1.0000 0.36070  0.91270  0.38730  Biso   1.000  N
  N33      1.0000 0.39550  0.85680  0.33370  Biso   1.000  N
  N34      1.0000 0.42840  0.80360  0.28130  Biso   1.000  N
  O10      1.0000 0.60930  0.84310  0.81950  Biso   1.000  O
  O11      1.0000 0.72370  0.96600  0.75740  Biso   1.000  O
  O12      1.0000 0.54180  0.24130  0.95320  Biso   1.000  O
  O13      1.0000 0.70830  0.24840  0.05730  Biso   1.000  O
  O14      1.0000 0.25520  0.55240  0.75680  Biso   1.000  O
  O15      1.0000 0.49500  0.47760  0.74400  Biso   1.000  O
  O16      1.0000 0.38500  0.43030  0.76610  Biso   1.000  O
  O17      1.0000 0.52520  0.23650  0.50400  Biso   1.000  O
  O18      1.0000 0.50280  0.31390  0.37980  Biso   1.000  O
