data_image0
_cell_length_a       13.2288
_cell_length_b       23.019
_cell_length_c       25.386
_cell_angle_alpha    87.375
_cell_angle_beta     80.115
_cell_angle_gamma    85.161

_symmetry_space_group_name_H-M    "P 1"
_symmetry_int_tables_number       1

loop_
  _symmetry_equiv_pos_as_xyz
  'x, y, z'

loop_
  _atom_site_label
  _atom_site_occupancy
  _atom_site_fract_x
  _atom_site_fract_y
  _atom_site_fract_z
  _atom_site_thermal_displace_type
  _atom_site_B_iso_or_equiv
  _atom_site_type_symbol
  W1       1.0000 0.13755  0.30546  0.28018  Biso   1.000  W
  W2       1.0000 0.89433  0.24290  0.11330  Biso   1.000  W
  W3       1.0000 0.15165  0.17025  0.08142  Biso   1.000  W
  W4       1.0000 0.93972  0.09123  0.15541  Biso   1.000  W
  W5       1.0000 0.79476  0.27245  0.23900  Biso   1.000  W
  W6       1.0000 0.24638  0.27029  0.14365  Biso   1.000  W
  W7       1.0000 0.28466  0.13020  0.17896  Biso   1.000  W
  W8       1.0000 0.83607  0.11952  0.28023  Biso   1.000  W
  W9       1.0000 0.07315  0.05221  0.25203  Biso   1.000  W
  W10      1.0000 0.98770  0.34519  0.17446  Biso   1.000  W
  W11      1.0000 0.94335  0.23228  0.34494  Biso   1.000  W
  W12      1.0000 0.17880  0.16568  0.31683  Biso   1.000  W
  B1       1.0000 0.03890  0.19980  0.21260  Biso   1.000  B
  O1       1.0000 0.03060  0.21870  0.07950  Biso   1.000  O
  O2       1.0000 0.12460  0.31770  0.14110  Biso   1.000  O
  O3       1.0000 0.87810  0.16270  0.13120  Biso   1.000  O
  O4       1.0000 0.78220  0.19270  0.25260  Biso   1.000  O
  O5       1.0000 0.04700  0.34350  0.23790  Biso   1.000  O
  O6       1.0000 0.85960  0.27260  0.29960  Biso   1.000  O
  O7       1.0000 0.02020  0.03150  0.19150  Biso   1.000  O
  O8       1.0000 0.85340  0.34450  0.21460  Biso   1.000  O
  O9       1.0000 0.13870  0.19450  0.17070  Biso   1.000  O
  O10      1.0000 0.99180  0.14130  0.21870  Biso   1.000  O
  O11      1.0000 0.23110  0.23590  0.07850  Biso   1.000  O
  O12      1.0000 0.19030  0.07350  0.20310  Biso   1.000  O
  O13      1.0000 0.33540  0.20300  0.15610  Biso   1.000  O
  O14      1.0000 0.06520  0.11000  0.10930  Biso   1.000  O
  O15      1.0000 0.06600  0.21780  0.26460  Biso   1.000  O
  O16      1.0000 0.96180  0.24530  0.19240  Biso   1.000  O
  O17      1.0000 0.93610  0.32040  0.11340  Biso   1.000  O
  O18      1.0000 0.77630  0.26500  0.16610  Biso   1.000  O
  O19      1.0000 0.26080  0.12270  0.10650  Biso   1.000  O
  O20      1.0000 0.82730  0.08740  0.21410  Biso   1.000  O
  O21      1.0000 0.26630  0.15440  0.25090  Biso   1.000  O
  O22      1.0000 0.88810  0.16470  0.32940  Biso   1.000  O
  O23      1.0000 0.02680  0.29680  0.33860  Biso   1.000  O
  O24      1.0000 0.11380  0.09990  0.30280  Biso   1.000  O
  O25      1.0000 0.93330  0.05770  0.29170  Biso   1.000  O
  O26      1.0000 0.21260  0.24390  0.31540  Biso   1.000  O
  O27      1.0000 0.05660  0.18690  0.36700  Biso   1.000  O
  O28      1.0000 0.22980  0.28800  0.21630  Biso   1.000  O
  W13      1.0000 0.86245  0.69454  0.71982  Biso   1.000  W
  W14      1.0000 0.10567  0.75710  0.88670  Biso   1.000  W
  W15      1.0000 0.84835  0.82975  0.91858  Biso   1.000  W
  W16      1.0000 0.06028  0.90877  0.84459  Biso   1.000  W
  W17      1.0000 0.20524  0.72755  0.76100  Biso   1.000  W
  W18      1.0000 0.75362  0.72971  0.85635  Biso   1.000  W
  W19      1.0000 0.71534  0.86980  0.82104  Biso   1.000  W
  W20      1.0000 0.16393  0.88048  0.71977  Biso   1.000  W
  W21      1.0000 0.92685  0.94779  0.74797  Biso   1.000  W
  W22      1.0000 0.01230  0.65481  0.82554  Biso   1.000  W
  W23      1.0000 0.05665  0.76772  0.65506  Biso   1.000  W
  W24      1.0000 0.82120  0.83432  0.68317  Biso   1.000  W
  B2       1.0000 0.96110  0.80020  0.78740  Biso   1.000  B
  O29      1.0000 0.96940  0.78130  0.92050  Biso   1.000  O
  O30      1.0000 0.87540  0.68230  0.85890  Biso   1.000  O
  O31      1.0000 0.12190  0.83730  0.86880  Biso   1.000  O
  O32      1.0000 0.21780  0.80730  0.74740  Biso   1.000  O
  O33      1.0000 0.95300  0.65650  0.76210  Biso   1.000  O
  O34      1.0000 0.14040  0.72740  0.70040  Biso   1.000  O
  O35      1.0000 0.97980  0.96850  0.80850  Biso   1.000  O
  O36      1.0000 0.14660  0.65550  0.78540  Biso   1.000  O
  O37      1.0000 0.86130  0.80550  0.82930  Biso   1.000  O
  O38      1.0000 0.00820  0.85870  0.78130  Biso   1.000  O
  O39      1.0000 0.76890  0.76410  0.92150  Biso   1.000  O
  O40      1.0000 0.80970  0.92650  0.79690  Biso   1.000  O
  O41      1.0000 0.66460  0.79700  0.84390  Biso   1.000  O
  O42      1.0000 0.93480  0.89000  0.89070  Biso   1.000  O
  O43      1.0000 0.93400  0.78220  0.73540  Biso   1.000  O
  O44      1.0000 0.03820  0.75470  0.80760  Biso   1.000  O
  O45      1.0000 0.06390  0.67960  0.88660  Biso   1.000  O
  O46      1.0000 0.22370  0.73500  0.83390  Biso   1.000  O
  O47      1.0000 0.73920  0.87730  0.89350  Biso   1.000  O
  O48      1.0000 0.17270  0.91260  0.78590  Biso   1.000  O
  O49      1.0000 0.73370  0.84560  0.74910  Biso   1.000  O
  O50      1.0000 0.11190  0.83530  0.67060  Biso   1.000  O
  O51      1.0000 0.97320  0.70320  0.66140  Biso   1.000  O
  O52      1.0000 0.88620  0.90010  0.69720  Biso   1.000  O
  O53      1.0000 0.06670  0.94230  0.70830  Biso   1.000  O
  O54      1.0000 0.78740  0.75610  0.68460  Biso   1.000  O
  O55      1.0000 0.94340  0.81310  0.63300  Biso   1.000  O
  O56      1.0000 0.77020  0.71200  0.78370  Biso   1.000  O
  Co1      1.0000 0.83446  0.96232  0.10852  Biso   1.000  Co
  O57      1.0000 0.78520  0.00310  0.03630  Biso   1.000  O
  O58      1.0000 0.67950  0.00240  0.13970  Biso   1.000  O
  C1       1.0000 0.13510  0.85820  0.17400  Biso   1.000  C
  H1       1.0000 0.19330  0.84100  0.18620  Biso   1.000  H
  C2       1.0000 0.05100  0.87770  0.20900  Biso   1.000  C
  H2       1.0000 0.04910  0.87320  0.24580  Biso   1.000  H
  C3       1.0000 0.96800  0.90460  0.18840  Biso   1.000  C
  C4       1.0000 0.87110  0.92620  0.22400  Biso   1.000  C
  C5       1.0000 0.65010  0.99940  0.18970  Biso   1.000  C
  C6       1.0000 0.85500  0.92300  0.28570  Biso   1.000  C
  H3       1.0000 0.91570  0.90460  0.29720  Biso   1.000  H
  H4       1.0000 0.84170  0.96170  0.29910  Biso   1.000  H
  H5       1.0000 0.79740  0.90060  0.29910  Biso   1.000  H
  C7       1.0000 0.10340  0.87320  0.99970  Biso   1.000  C
  H6       1.0000 0.15510  0.84840  0.01380  Biso   1.000  H
  H7       1.0000 0.06610  0.85030  0.98010  Biso   1.000  H
  H8       1.0000 0.13560  0.90280  0.97640  Biso   1.000  H
  C8       1.0000 0.83470  0.98480  0.99300  Biso   1.000  C
  C9       1.0000 0.02700  0.90270  0.04710  Biso   1.000  C
  C10      1.0000 0.04720  0.89060  0.10240  Biso   1.000  C
  C11      1.0000 0.13200  0.86470  0.11790  Biso   1.000  C
  H9       1.0000 0.18780  0.85120  0.09280  Biso   1.000  H
  N1       1.0000 0.80650  0.99880  0.94500  Biso   1.000  N
  H10      1.0000 0.75190  0.02140  0.94320  Biso   1.000  H
  H11      1.0000 0.84300  0.98500  0.91630  Biso   1.000  H
  N2       1.0000 0.92510  0.95220  0.99250  Biso   1.000  N
  H12      1.0000 0.96320  0.94170  0.96290  Biso   1.000  H
  N3       1.0000 0.95310  0.93670  0.04070  Biso   1.000  N
  N4       1.0000 0.96590  0.91180  0.13560  Biso   1.000  N
  N5       1.0000 0.80000  0.94940  0.19640  Biso   1.000  N
  N6       1.0000 0.70800  0.97200  0.22300  Biso   1.000  N
  H13      1.0000 0.68930  0.96900  0.25710  Biso   1.000  H
  N7       1.0000 0.56000  0.02260  0.21210  Biso   1.000  N
  H14      1.0000 0.51910  0.04030  0.19260  Biso   1.000  H
  H15      1.0000 0.54160  0.02000  0.24620  Biso   1.000  H
  Co2      1.0000 0.49051  0.34115  0.11782  Biso   1.000  Co
  O59      1.0000 0.45680  0.42190  0.07000  Biso   1.000  O
  O60      1.0000 0.42340  0.40410  0.17700  Biso   1.000  O
  C12      1.0000 0.44770  0.41410  0.02470  Biso   1.000  C
  C13      1.0000 0.55930  0.27100  0.01550  Biso   1.000  C
  C14      1.0000 0.58030  0.22970  0.06130  Biso   1.000  C
  C15      1.0000 0.63080  0.17530  0.05120  Biso   1.000  C
  H16      1.0000 0.65320  0.16190  0.01680  Biso   1.000  H
  C16      1.0000 0.64510  0.14170  0.09760  Biso   1.000  C
  H17      1.0000 0.67820  0.10450  0.09400  Biso   1.000  H
  C17      1.0000 0.61130  0.16280  0.14840  Biso   1.000  C
  H18      1.0000 0.61910  0.13980  0.17880  Biso   1.000  H
  C18      1.0000 0.56610  0.21830  0.15220  Biso   1.000  C
  C19      1.0000 0.52480  0.24520  0.20290  Biso   1.000  C
  C20      1.0000 0.42050  0.38820  0.22510  Biso   1.000  C
  C21      1.0000 0.51190  0.20990  0.25480  Biso   1.000  C
  H19      1.0000 0.54170  0.17080  0.24850  Biso   1.000  H
  H20      1.0000 0.54580  0.22740  0.27990  Biso   1.000  H
  H21      1.0000 0.44000  0.20900  0.26910  Biso   1.000  H
  C22      1.0000 0.57600  0.25310  0.95980  Biso   1.000  C
  H22      1.0000 0.60880  0.21420  0.95750  Biso   1.000  H
  H23      1.0000 0.51120  0.25400  0.94760  Biso   1.000  H
  H24      1.0000 0.61950  0.27930  0.93780  Biso   1.000  H
  N8       1.0000 0.39790  0.45550  0.99370  Biso   1.000  N
  H25      1.0000 0.37220  0.48820  0.00710  Biso   1.000  H
  H26      1.0000 0.39310  0.44820  0.96140  Biso   1.000  H
  N9       1.0000 0.48420  0.36310  0.99990  Biso   1.000  N
  H27      1.0000 0.48580  0.35850  0.96630  Biso   1.000  H
  N10      1.0000 0.51790  0.31990  0.03330  Biso   1.000  N
  N11      1.0000 0.55330  0.25200  0.10970  Biso   1.000  N
  N12      1.0000 0.49320  0.29980  0.19730  Biso   1.000  N
  N13      1.0000 0.45290  0.33550  0.23910  Biso   1.000  N
  H28      1.0000 0.44920  0.32390  0.27200  Biso   1.000  H
  N14      1.0000 0.38630  0.42600  0.26350  Biso   1.000  N
  H29      1.0000 0.36630  0.46130  0.25530  Biso   1.000  H
  H30      1.0000 0.38430  0.41520  0.29650  Biso   1.000  H
  Co3      1.0000 0.16554  0.03768  0.89148  Biso   1.000  Co
  O61      1.0000 0.21480  0.99690  0.96370  Biso   1.000  O
  O62      1.0000 0.32050  0.99760  0.86030  Biso   1.000  O
  C23      1.0000 0.86490  0.14180  0.82600  Biso   1.000  C
  H31      1.0000 0.80670  0.15900  0.81380  Biso   1.000  H
  C24      1.0000 0.94900  0.12230  0.79100  Biso   1.000  C
  H32      1.0000 0.95090  0.12680  0.75420  Biso   1.000  H
  C25      1.0000 0.03200  0.09540  0.81160  Biso   1.000  C
  C26      1.0000 0.12890  0.07380  0.77600  Biso   1.000  C
  C27      1.0000 0.34990  0.00060  0.81030  Biso   1.000  C
  C28      1.0000 0.14500  0.07700  0.71430  Biso   1.000  C
  H33      1.0000 0.08430  0.09540  0.70280  Biso   1.000  H
  H34      1.0000 0.15830  0.03830  0.70090  Biso   1.000  H
  H35      1.0000 0.20260  0.09940  0.70090  Biso   1.000  H
  C29      1.0000 0.89660  0.12680  0.00030  Biso   1.000  C
  H36      1.0000 0.84490  0.15160  0.98620  Biso   1.000  H
  H37      1.0000 0.93390  0.14970  0.01990  Biso   1.000  H
  H38      1.0000 0.86440  0.09720  0.02360  Biso   1.000  H
  C30      1.0000 0.16530  0.01520  0.00700  Biso   1.000  C
  C31      1.0000 0.97300  0.09730  0.95290  Biso   1.000  C
  C32      1.0000 0.95280  0.10940  0.89760  Biso   1.000  C
  C33      1.0000 0.86800  0.13530  0.88210  Biso   1.000  C
  H39      1.0000 0.81220  0.14880  0.90720  Biso   1.000  H
  N15      1.0000 0.19350  0.00120  0.05500  Biso   1.000  N
  H40      1.0000 0.24810  0.97860  0.05680  Biso   1.000  H
  H41      1.0000 0.15700  0.01500  0.08370  Biso   1.000  H
  N16      1.0000 0.07490  0.04780  0.00750  Biso   1.000  N
  H42      1.0000 0.03680  0.05830  0.03710  Biso   1.000  H
  N17      1.0000 0.04690  0.06330  0.95930  Biso   1.000  N
  N18      1.0000 0.03410  0.08820  0.86440  Biso   1.000  N
  N19      1.0000 0.20000  0.05060  0.80360  Biso   1.000  N
  N20      1.0000 0.29200  0.02800  0.77700  Biso   1.000  N
  H43      1.0000 0.31070  0.03100  0.74290  Biso   1.000  H
  N21      1.0000 0.44000  0.97740  0.78790  Biso   1.000  N
  H44      1.0000 0.48090  0.95970  0.80740  Biso   1.000  H
  H45      1.0000 0.45840  0.98000  0.75380  Biso   1.000  H
  Co4      1.0000 0.50949  0.65885  0.88218  Biso   1.000  Co
  O63      1.0000 0.54320  0.57810  0.93000  Biso   1.000  O
  O64      1.0000 0.57660  0.59590  0.82300  Biso   1.000  O
  C34      1.0000 0.55230  0.58590  0.97530  Biso   1.000  C
  C35      1.0000 0.44070  0.72900  0.98450  Biso   1.000  C
  C36      1.0000 0.41970  0.77030  0.93870  Biso   1.000  C
  C37      1.0000 0.36920  0.82470  0.94880  Biso   1.000  C
  H46      1.0000 0.34680  0.83810  0.98320  Biso   1.000  H
  C38      1.0000 0.35490  0.85830  0.90240  Biso   1.000  C
  H47      1.0000 0.32180  0.89550  0.90600  Biso   1.000  H
  C39      1.0000 0.38870  0.83720  0.85160  Biso   1.000  C
  H48      1.0000 0.38090  0.86020  0.82120  Biso   1.000  H
  C40      1.0000 0.43390  0.78170  0.84780  Biso   1.000  C
  C41      1.0000 0.47520  0.75480  0.79710  Biso   1.000  C
  C42      1.0000 0.57950  0.61180  0.77490  Biso   1.000  C
  C43      1.0000 0.48810  0.79010  0.74520  Biso   1.000  C
  H49      1.0000 0.45830  0.82920  0.75150  Biso   1.000  H
  H50      1.0000 0.45420  0.77260  0.72010  Biso   1.000  H
  H51      1.0000 0.56000  0.79100  0.73090  Biso   1.000  H
  C44      1.0000 0.42400  0.74690  0.04020  Biso   1.000  C
  H52      1.0000 0.39120  0.78580  0.04250  Biso   1.000  H
  H53      1.0000 0.48880  0.74600  0.05240  Biso   1.000  H
  H54      1.0000 0.38050  0.72070  0.06220  Biso   1.000  H
  N22      1.0000 0.60210  0.54450  0.00630  Biso   1.000  N
  H55      1.0000 0.62780  0.51180  0.99290  Biso   1.000  H
  H56      1.0000 0.60690  0.55180  0.03860  Biso   1.000  H
  N23      1.0000 0.51580  0.63690  0.00010  Biso   1.000  N
  H57      1.0000 0.51420  0.64150  0.03370  Biso   1.000  H
  N24      1.0000 0.48210  0.68010  0.96670  Biso   1.000  N
  N25      1.0000 0.44670  0.74800  0.89030  Biso   1.000  N
  N26      1.0000 0.50680  0.70020  0.80270  Biso   1.000  N
  N27      1.0000 0.54710  0.66450  0.76090  Biso   1.000  N
  H58      1.0000 0.55080  0.67610  0.72800  Biso   1.000  H
  N28      1.0000 0.61370  0.57400  0.73650  Biso   1.000  N
  H59      1.0000 0.63370  0.53870  0.74470  Biso   1.000  H
  H60      1.0000 0.61570  0.58480  0.70350  Biso   1.000  H
