data_image0
_cell_length_a       7.804
_cell_length_b       22.16
_cell_length_c       27.06
_cell_angle_alpha    90
_cell_angle_beta     90
_cell_angle_gamma    90

_symmetry_space_group_name_H-M    "P 1"
_symmetry_int_tables_number       1

loop_
  _symmetry_equiv_pos_as_xyz
  'x, y, z'

loop_
  _atom_site_label
  _atom_site_occupancy
  _atom_site_fract_x
  _atom_site_fract_y
  _atom_site_fract_z
  _atom_site_thermal_displace_type
  _atom_site_B_iso_or_equiv
  _atom_site_type_symbol
  Cd1      1.0000 0.48106  0.96485  0.24510  Biso   1.000  Cd
  N1       1.0000 0.18750  0.14700  0.98600  Biso   1.000  N
  O1       1.0000 0.22420  0.03130  0.25260  Biso   1.000  O
  O2       1.0000 0.38770  0.03180  0.18670  Biso   1.000  O
  O3       1.0000 0.25470  0.10250  0.75710  Biso   1.000  O
  O4       1.0000 0.43970  0.09900  0.81810  Biso   1.000  O
  C1       1.0000 0.11400  0.19560  0.96450  Biso   1.000  C
  C2       1.0000 0.04100  0.24080  0.99400  Biso   1.000  C
  H1       1.0000 0.99620  0.27570  0.97990  Biso   1.000  H
  C3       1.0000 0.03800  0.23210  0.04410  Biso   1.000  C
  H2       1.0000 0.98470  0.26070  0.06400  Biso   1.000  H
  C4       1.0000 0.11100  0.18230  0.06580  Biso   1.000  C
  C5       1.0000 0.18200  0.14090  0.03590  Biso   1.000  C
  H3       1.0000 0.22930  0.10650  0.05010  Biso   1.000  H
  C6       1.0000 0.26890  0.05360  0.21190  Biso   1.000  C
  C7       1.0000 0.17200  0.10860  0.19080  Biso   1.000  C
  C8       1.0000 0.19110  0.12210  0.14180  Biso   1.000  C
  H4       1.0000 0.26490  0.09910  0.12250  Biso   1.000  H
  C9       1.0000 0.10140  0.17010  0.12020  Biso   1.000  C
  C10      1.0000 0.99800  0.20540  0.15120  Biso   1.000  C
  H5       1.0000 0.93750  0.23780  0.13810  Biso   1.000  H
  C11      1.0000 0.98500  0.19250  0.20100  Biso   1.000  C
  H6       1.0000 0.92020  0.21760  0.22140  Biso   1.000  H
  C12      1.0000 0.06730  0.14190  0.22120  Biso   1.000  C
  H7       1.0000 0.05170  0.13120  0.25410  Biso   1.000  H
  C13      1.0000 0.30560  0.11890  0.79940  Biso   1.000  C
  C14      1.0000 0.19960  0.16160  0.82970  Biso   1.000  C
  C15      1.0000 0.21150  0.16210  0.88070  Biso   1.000  C
  H8       1.0000 0.28860  0.13630  0.89620  Biso   1.000  H
  C16      1.0000 0.11100  0.20020  0.90920  Biso   1.000  C
  C17      1.0000 0.00400  0.24030  0.88480  Biso   1.000  C
  H9       1.0000 0.93800  0.26710  0.90300  Biso   1.000  H
  C18      1.0000 0.99480  0.24100  0.83420  Biso   1.000  C
  H10      1.0000 0.92310  0.26850  0.81850  Biso   1.000  H
  C19      1.0000 0.08990  0.20150  0.80640  Biso   1.000  C
  H11      1.0000 0.08070  0.20160  0.77210  Biso   1.000  H
  Cd2      1.0000 0.01894  0.03515  0.74510  Biso   1.000  Cd
  N2       1.0000 0.31250  0.85300  0.48600  Biso   1.000  N
  O5       1.0000 0.27580  0.96870  0.75260  Biso   1.000  O
  O6       1.0000 0.11230  0.96820  0.68670  Biso   1.000  O
  O7       1.0000 0.24530  0.89750  0.25710  Biso   1.000  O
  O8       1.0000 0.06030  0.90100  0.31810  Biso   1.000  O
  C20      1.0000 0.38600  0.80440  0.46450  Biso   1.000  C
  C21      1.0000 0.45900  0.75920  0.49400  Biso   1.000  C
  H12      1.0000 0.50380  0.72430  0.47990  Biso   1.000  H
  C22      1.0000 0.46200  0.76790  0.54410  Biso   1.000  C
  H13      1.0000 0.51530  0.73930  0.56400  Biso   1.000  H
  C23      1.0000 0.38900  0.81770  0.56580  Biso   1.000  C
  C24      1.0000 0.31800  0.85910  0.53590  Biso   1.000  C
  H14      1.0000 0.27070  0.89350  0.55010  Biso   1.000  H
  C25      1.0000 0.23110  0.94640  0.71190  Biso   1.000  C
  C26      1.0000 0.32800  0.89140  0.69080  Biso   1.000  C
  C27      1.0000 0.30890  0.87790  0.64180  Biso   1.000  C
  H15      1.0000 0.23510  0.90090  0.62250  Biso   1.000  H
  C28      1.0000 0.39860  0.82990  0.62020  Biso   1.000  C
  C29      1.0000 0.50200  0.79460  0.65120  Biso   1.000  C
  H16      1.0000 0.56250  0.76220  0.63810  Biso   1.000  H
  C30      1.0000 0.51500  0.80750  0.70100  Biso   1.000  C
  H17      1.0000 0.57980  0.78240  0.72140  Biso   1.000  H
  C31      1.0000 0.43270  0.85810  0.72120  Biso   1.000  C
  H18      1.0000 0.44830  0.86880  0.75410  Biso   1.000  H
  C32      1.0000 0.19440  0.88110  0.29940  Biso   1.000  C
  C33      1.0000 0.30040  0.83840  0.32970  Biso   1.000  C
  C34      1.0000 0.28850  0.83790  0.38070  Biso   1.000  C
  H19      1.0000 0.21140  0.86370  0.39620  Biso   1.000  H
  C35      1.0000 0.38900  0.79980  0.40920  Biso   1.000  C
  C36      1.0000 0.49600  0.75970  0.38480  Biso   1.000  C
  H20      1.0000 0.56200  0.73290  0.40300  Biso   1.000  H
  C37      1.0000 0.50520  0.75900  0.33420  Biso   1.000  C
  H21      1.0000 0.57690  0.73150  0.31850  Biso   1.000  H
  C38      1.0000 0.41010  0.79850  0.30640  Biso   1.000  C
  H22      1.0000 0.41930  0.79840  0.27210  Biso   1.000  H
  Cd3      1.0000 0.51894  0.03515  0.75490  Biso   1.000  Cd
  N3       1.0000 0.81250  0.85300  0.01400  Biso   1.000  N
  O9       1.0000 0.77580  0.96870  0.74740  Biso   1.000  O
  O10      1.0000 0.61230  0.96820  0.81330  Biso   1.000  O
  O11      1.0000 0.74530  0.89750  0.24290  Biso   1.000  O
  O12      1.0000 0.56030  0.90100  0.18190  Biso   1.000  O
  C39      1.0000 0.88600  0.80440  0.03550  Biso   1.000  C
  C40      1.0000 0.95900  0.75920  0.00600  Biso   1.000  C
  H23      1.0000 0.00380  0.72430  0.02010  Biso   1.000  H
  C41      1.0000 0.96200  0.76790  0.95590  Biso   1.000  C
  H24      1.0000 0.01530  0.73930  0.93600  Biso   1.000  H
  C42      1.0000 0.88900  0.81770  0.93420  Biso   1.000  C
  C43      1.0000 0.81800  0.85910  0.96410  Biso   1.000  C
  H25      1.0000 0.77070  0.89350  0.94990  Biso   1.000  H
  C44      1.0000 0.73110  0.94640  0.78810  Biso   1.000  C
  C45      1.0000 0.82800  0.89140  0.80920  Biso   1.000  C
  C46      1.0000 0.80890  0.87790  0.85820  Biso   1.000  C
  H26      1.0000 0.73510  0.90090  0.87750  Biso   1.000  H
  C47      1.0000 0.89860  0.82990  0.87980  Biso   1.000  C
  C48      1.0000 0.00200  0.79460  0.84880  Biso   1.000  C
  H27      1.0000 0.06250  0.76220  0.86190  Biso   1.000  H
  C49      1.0000 0.01500  0.80750  0.79900  Biso   1.000  C
  H28      1.0000 0.07980  0.78240  0.77860  Biso   1.000  H
  C50      1.0000 0.93270  0.85810  0.77880  Biso   1.000  C
  H29      1.0000 0.94830  0.86880  0.74590  Biso   1.000  H
  C51      1.0000 0.69440  0.88110  0.20060  Biso   1.000  C
  C52      1.0000 0.80040  0.83840  0.17030  Biso   1.000  C
  C53      1.0000 0.78850  0.83790  0.11930  Biso   1.000  C
  H30      1.0000 0.71140  0.86370  0.10380  Biso   1.000  H
  C54      1.0000 0.88900  0.79980  0.09080  Biso   1.000  C
  C55      1.0000 0.99600  0.75970  0.11520  Biso   1.000  C
  H31      1.0000 0.06200  0.73290  0.09700  Biso   1.000  H
  C56      1.0000 0.00520  0.75900  0.16580  Biso   1.000  C
  H32      1.0000 0.07690  0.73150  0.18150  Biso   1.000  H
  C57      1.0000 0.91010  0.79850  0.19360  Biso   1.000  C
  H33      1.0000 0.91930  0.79840  0.22790  Biso   1.000  H
  Cd4      1.0000 0.98106  0.96485  0.25490  Biso   1.000  Cd
  N4       1.0000 0.68750  0.14700  0.51400  Biso   1.000  N
  O13      1.0000 0.72420  0.03130  0.24740  Biso   1.000  O
  O14      1.0000 0.88770  0.03180  0.31330  Biso   1.000  O
  O15      1.0000 0.75470  0.10250  0.74290  Biso   1.000  O
  O16      1.0000 0.93970  0.09900  0.68190  Biso   1.000  O
  C58      1.0000 0.61400  0.19560  0.53550  Biso   1.000  C
  C59      1.0000 0.54100  0.24080  0.50600  Biso   1.000  C
  H34      1.0000 0.49620  0.27570  0.52010  Biso   1.000  H
  C60      1.0000 0.53800  0.23210  0.45590  Biso   1.000  C
  H35      1.0000 0.48470  0.26070  0.43600  Biso   1.000  H
  C61      1.0000 0.61100  0.18230  0.43420  Biso   1.000  C
  C62      1.0000 0.68200  0.14090  0.46410  Biso   1.000  C
  H36      1.0000 0.72930  0.10650  0.44990  Biso   1.000  H
  C63      1.0000 0.76890  0.05360  0.28810  Biso   1.000  C
  C64      1.0000 0.67200  0.10860  0.30920  Biso   1.000  C
  C65      1.0000 0.69110  0.12210  0.35820  Biso   1.000  C
  H37      1.0000 0.76490  0.09910  0.37750  Biso   1.000  H
  C66      1.0000 0.60140  0.17010  0.37980  Biso   1.000  C
  C67      1.0000 0.49800  0.20540  0.34880  Biso   1.000  C
  H38      1.0000 0.43750  0.23780  0.36190  Biso   1.000  H
  C68      1.0000 0.48500  0.19250  0.29900  Biso   1.000  C
  H39      1.0000 0.42020  0.21760  0.27860  Biso   1.000  H
  C69      1.0000 0.56730  0.14190  0.27880  Biso   1.000  C
  H40      1.0000 0.55170  0.13120  0.24590  Biso   1.000  H
  C70      1.0000 0.80560  0.11890  0.70060  Biso   1.000  C
  C71      1.0000 0.69960  0.16160  0.67030  Biso   1.000  C
  C72      1.0000 0.71150  0.16210  0.61930  Biso   1.000  C
  H41      1.0000 0.78860  0.13630  0.60380  Biso   1.000  H
  C73      1.0000 0.61100  0.20020  0.59080  Biso   1.000  C
  C74      1.0000 0.50400  0.24030  0.61520  Biso   1.000  C
  H42      1.0000 0.43800  0.26710  0.59700  Biso   1.000  H
  C75      1.0000 0.49480  0.24100  0.66580  Biso   1.000  C
  H43      1.0000 0.42310  0.26850  0.68150  Biso   1.000  H
  C76      1.0000 0.58990  0.20150  0.69360  Biso   1.000  C
  H44      1.0000 0.58070  0.20160  0.72790  Biso   1.000  H
  Cd5      1.0000 0.51894  0.46485  0.25490  Biso   1.000  Cd
  N5       1.0000 0.81250  0.64700  0.51400  Biso   1.000  N
  O17      1.0000 0.77580  0.53130  0.24740  Biso   1.000  O
  O18      1.0000 0.61230  0.53180  0.31330  Biso   1.000  O
  O19      1.0000 0.74530  0.60250  0.74290  Biso   1.000  O
  O20      1.0000 0.56030  0.59900  0.68190  Biso   1.000  O
  C77      1.0000 0.88600  0.69560  0.53550  Biso   1.000  C
  C78      1.0000 0.95900  0.74080  0.50600  Biso   1.000  C
  H45      1.0000 0.00380  0.77570  0.52010  Biso   1.000  H
  C79      1.0000 0.96200  0.73210  0.45590  Biso   1.000  C
  H46      1.0000 0.01530  0.76070  0.43600  Biso   1.000  H
  C80      1.0000 0.88900  0.68230  0.43420  Biso   1.000  C
  C81      1.0000 0.81800  0.64090  0.46410  Biso   1.000  C
  H47      1.0000 0.77070  0.60650  0.44990  Biso   1.000  H
  C82      1.0000 0.73110  0.55360  0.28810  Biso   1.000  C
  C83      1.0000 0.82800  0.60860  0.30920  Biso   1.000  C
  C84      1.0000 0.80890  0.62210  0.35820  Biso   1.000  C
  H48      1.0000 0.73510  0.59910  0.37750  Biso   1.000  H
  C85      1.0000 0.89860  0.67010  0.37980  Biso   1.000  C
  C86      1.0000 0.00200  0.70540  0.34880  Biso   1.000  C
  H49      1.0000 0.06250  0.73780  0.36190  Biso   1.000  H
  C87      1.0000 0.01500  0.69250  0.29900  Biso   1.000  C
  H50      1.0000 0.07980  0.71760  0.27860  Biso   1.000  H
  C88      1.0000 0.93270  0.64190  0.27880  Biso   1.000  C
  H51      1.0000 0.94830  0.63120  0.24590  Biso   1.000  H
  C89      1.0000 0.69440  0.61890  0.70060  Biso   1.000  C
  C90      1.0000 0.80040  0.66160  0.67030  Biso   1.000  C
  C91      1.0000 0.78850  0.66210  0.61930  Biso   1.000  C
  H52      1.0000 0.71140  0.63630  0.60380  Biso   1.000  H
  C92      1.0000 0.88900  0.70020  0.59080  Biso   1.000  C
  C93      1.0000 0.99600  0.74030  0.61520  Biso   1.000  C
  H53      1.0000 0.06200  0.76710  0.59700  Biso   1.000  H
  C94      1.0000 0.00520  0.74100  0.66580  Biso   1.000  C
  H54      1.0000 0.07690  0.76850  0.68150  Biso   1.000  H
  C95      1.0000 0.91010  0.70150  0.69360  Biso   1.000  C
  H55      1.0000 0.91930  0.70160  0.72790  Biso   1.000  H
  Cd6      1.0000 0.98106  0.53515  0.75490  Biso   1.000  Cd
  N6       1.0000 0.68750  0.35300  0.01400  Biso   1.000  N
  O21      1.0000 0.72420  0.46870  0.74740  Biso   1.000  O
  O22      1.0000 0.88770  0.46820  0.81330  Biso   1.000  O
  O23      1.0000 0.75470  0.39750  0.24290  Biso   1.000  O
  O24      1.0000 0.93970  0.40100  0.18190  Biso   1.000  O
  C96      1.0000 0.61400  0.30440  0.03550  Biso   1.000  C
  C97      1.0000 0.54100  0.25920  0.00600  Biso   1.000  C
  H56      1.0000 0.49620  0.22430  0.02010  Biso   1.000  H
  C98      1.0000 0.53800  0.26790  0.95590  Biso   1.000  C
  H57      1.0000 0.48470  0.23930  0.93600  Biso   1.000  H
  C99      1.0000 0.61100  0.31770  0.93420  Biso   1.000  C
  C100     1.0000 0.68200  0.35910  0.96410  Biso   1.000  C
  H58      1.0000 0.72930  0.39350  0.94990  Biso   1.000  H
  C101     1.0000 0.76890  0.44640  0.78810  Biso   1.000  C
  C102     1.0000 0.67200  0.39140  0.80920  Biso   1.000  C
  C103     1.0000 0.69110  0.37790  0.85820  Biso   1.000  C
  H59      1.0000 0.76490  0.40090  0.87750  Biso   1.000  H
  C104     1.0000 0.60140  0.32990  0.87980  Biso   1.000  C
  C105     1.0000 0.49800  0.29460  0.84880  Biso   1.000  C
  H60      1.0000 0.43750  0.26220  0.86190  Biso   1.000  H
  C106     1.0000 0.48500  0.30750  0.79900  Biso   1.000  C
  H61      1.0000 0.42020  0.28240  0.77860  Biso   1.000  H
  C107     1.0000 0.56730  0.35810  0.77880  Biso   1.000  C
  H62      1.0000 0.55170  0.36880  0.74590  Biso   1.000  H
  C108     1.0000 0.80560  0.38110  0.20060  Biso   1.000  C
  C109     1.0000 0.69960  0.33840  0.17030  Biso   1.000  C
  C110     1.0000 0.71150  0.33790  0.11930  Biso   1.000  C
  H63      1.0000 0.78860  0.36370  0.10380  Biso   1.000  H
  C111     1.0000 0.61100  0.29980  0.09080  Biso   1.000  C
  C112     1.0000 0.50400  0.25970  0.11520  Biso   1.000  C
  H64      1.0000 0.43800  0.23290  0.09700  Biso   1.000  H
  C113     1.0000 0.49480  0.25900  0.16580  Biso   1.000  C
  H65      1.0000 0.42310  0.23150  0.18150  Biso   1.000  H
  C114     1.0000 0.58990  0.29850  0.19360  Biso   1.000  C
  H66      1.0000 0.58070  0.29840  0.22790  Biso   1.000  H
  Cd7      1.0000 0.48106  0.53515  0.74510  Biso   1.000  Cd
  N7       1.0000 0.18750  0.35300  0.48600  Biso   1.000  N
  O25      1.0000 0.22420  0.46870  0.75260  Biso   1.000  O
  O26      1.0000 0.38770  0.46820  0.68670  Biso   1.000  O
  O27      1.0000 0.25470  0.39750  0.25710  Biso   1.000  O
  O28      1.0000 0.43970  0.40100  0.31810  Biso   1.000  O
  C115     1.0000 0.11400  0.30440  0.46450  Biso   1.000  C
  C116     1.0000 0.04100  0.25920  0.49400  Biso   1.000  C
  H67      1.0000 0.99620  0.22430  0.47990  Biso   1.000  H
  C117     1.0000 0.03800  0.26790  0.54410  Biso   1.000  C
  H68      1.0000 0.98470  0.23930  0.56400  Biso   1.000  H
  C118     1.0000 0.11100  0.31770  0.56580  Biso   1.000  C
  C119     1.0000 0.18200  0.35910  0.53590  Biso   1.000  C
  H69      1.0000 0.22930  0.39350  0.55010  Biso   1.000  H
  C120     1.0000 0.26890  0.44640  0.71190  Biso   1.000  C
  C121     1.0000 0.17200  0.39140  0.69080  Biso   1.000  C
  C122     1.0000 0.19110  0.37790  0.64180  Biso   1.000  C
  H70      1.0000 0.26490  0.40090  0.62250  Biso   1.000  H
  C123     1.0000 0.10140  0.32990  0.62020  Biso   1.000  C
  C124     1.0000 0.99800  0.29460  0.65120  Biso   1.000  C
  H71      1.0000 0.93750  0.26220  0.63810  Biso   1.000  H
  C125     1.0000 0.98500  0.30750  0.70100  Biso   1.000  C
  H72      1.0000 0.92020  0.28240  0.72140  Biso   1.000  H
  C126     1.0000 0.06730  0.35810  0.72120  Biso   1.000  C
  H73      1.0000 0.05170  0.36880  0.75410  Biso   1.000  H
  C127     1.0000 0.30560  0.38110  0.29940  Biso   1.000  C
  C128     1.0000 0.19960  0.33840  0.32970  Biso   1.000  C
  C129     1.0000 0.21150  0.33790  0.38070  Biso   1.000  C
  H74      1.0000 0.28860  0.36370  0.39620  Biso   1.000  H
  C130     1.0000 0.11100  0.29980  0.40920  Biso   1.000  C
  C131     1.0000 0.00400  0.25970  0.38480  Biso   1.000  C
  H75      1.0000 0.93800  0.23290  0.40300  Biso   1.000  H
  C132     1.0000 0.99480  0.25900  0.33420  Biso   1.000  C
  H76      1.0000 0.92310  0.23150  0.31850  Biso   1.000  H
  C133     1.0000 0.08990  0.29850  0.30640  Biso   1.000  C
  H77      1.0000 0.08070  0.29840  0.27210  Biso   1.000  H
  Cd8      1.0000 0.01894  0.46485  0.24510  Biso   1.000  Cd
  N8       1.0000 0.31250  0.64700  0.98600  Biso   1.000  N
  O29      1.0000 0.27580  0.53130  0.25260  Biso   1.000  O
  O30      1.0000 0.11230  0.53180  0.18670  Biso   1.000  O
  O31      1.0000 0.24530  0.60250  0.75710  Biso   1.000  O
  O32      1.0000 0.06030  0.59900  0.81810  Biso   1.000  O
  C134     1.0000 0.38600  0.69560  0.96450  Biso   1.000  C
  C135     1.0000 0.45900  0.74080  0.99400  Biso   1.000  C
  H78      1.0000 0.50380  0.77570  0.97990  Biso   1.000  H
  C136     1.0000 0.46200  0.73210  0.04410  Biso   1.000  C
  H79      1.0000 0.51530  0.76070  0.06400  Biso   1.000  H
  C137     1.0000 0.38900  0.68230  0.06580  Biso   1.000  C
  C138     1.0000 0.31800  0.64090  0.03590  Biso   1.000  C
  H80      1.0000 0.27070  0.60650  0.05010  Biso   1.000  H
  C139     1.0000 0.23110  0.55360  0.21190  Biso   1.000  C
  C140     1.0000 0.32800  0.60860  0.19080  Biso   1.000  C
  C141     1.0000 0.30890  0.62210  0.14180  Biso   1.000  C
  H81      1.0000 0.23510  0.59910  0.12250  Biso   1.000  H
  C142     1.0000 0.39860  0.67010  0.12020  Biso   1.000  C
  C143     1.0000 0.50200  0.70540  0.15120  Biso   1.000  C
  H82      1.0000 0.56250  0.73780  0.13810  Biso   1.000  H
  C144     1.0000 0.51500  0.69250  0.20100  Biso   1.000  C
  H83      1.0000 0.57980  0.71760  0.22140  Biso   1.000  H
  C145     1.0000 0.43270  0.64190  0.22120  Biso   1.000  C
  H84      1.0000 0.44830  0.63120  0.25410  Biso   1.000  H
  C146     1.0000 0.19440  0.61890  0.79940  Biso   1.000  C
  C147     1.0000 0.30040  0.66160  0.82970  Biso   1.000  C
  C148     1.0000 0.28850  0.66210  0.88070  Biso   1.000  C
  H85      1.0000 0.21140  0.63630  0.89620  Biso   1.000  H
  C149     1.0000 0.38900  0.70020  0.90920  Biso   1.000  C
  C150     1.0000 0.49600  0.74030  0.88480  Biso   1.000  C
  H86      1.0000 0.56200  0.76710  0.90300  Biso   1.000  H
  C151     1.0000 0.50520  0.74100  0.83420  Biso   1.000  C
  H87      1.0000 0.57690  0.76850  0.81850  Biso   1.000  H
  C152     1.0000 0.41010  0.70150  0.80640  Biso   1.000  C
  H88      1.0000 0.41930  0.70160  0.77210  Biso   1.000  H
