data_image0
_cell_length_a       12.964
_cell_length_b       25.188
_cell_length_c       19.282
_cell_angle_alpha    90
_cell_angle_beta     93.209
_cell_angle_gamma    90

_symmetry_space_group_name_H-M    "P 1"
_symmetry_int_tables_number       1

loop_
  _symmetry_equiv_pos_as_xyz
  'x, y, z'

loop_
  _atom_site_label
  _atom_site_occupancy
  _atom_site_fract_x
  _atom_site_fract_y
  _atom_site_fract_z
  _atom_site_thermal_displace_type
  _atom_site_B_iso_or_equiv
  _atom_site_type_symbol
  Mo1      1.0000 0.33949  0.94243  0.37995  Biso   1.000  Mo
  Mo2      1.0000 0.95880  0.91435  0.17895  Biso   1.000  Mo
  Mo3      1.0000 0.40815  0.81078  0.35624  Biso   1.000  Mo
  Mo4      1.0000 0.03620  0.77861  0.14862  Biso   1.000  Mo
  Mo5      1.0000 0.94010  0.81439  0.31875  Biso   1.000  Mo
  Mo6      1.0000 0.25287  0.72714  0.23896  Biso   1.000  Mo
  Mo7      1.0000 0.10615  0.99487  0.29220  Biso   1.000  Mo
  Mo8      1.0000 0.27730  0.81867  0.10458  Biso   1.000  Mo
  Mo9      1.0000 0.20172  0.95711  0.13387  Biso   1.000  Mo
  Mo10     1.0000 0.43532  0.90377  0.22376  Biso   1.000  Mo
  Mo11     1.0000 0.08690  0.89379  0.43063  Biso   1.000  Mo
  P1       1.0000 0.18230  0.86107  0.26736  Biso   1.000  P
  Zn1      1.0000 0.15462  0.76955  0.40051  Biso   1.000  Zn
  O1       1.0000 0.38760  0.85210  0.15750  Biso   1.000  O
  O2       1.0000 0.18270  0.81700  0.21570  Biso   1.000  O
  O3       1.0000 0.13390  0.91050  0.23370  Biso   1.000  O
  O4       1.0000 0.30750  0.78870  0.40550  Biso   1.000  O
  O5       1.0000 0.98750  0.84970  0.13450  Biso   1.000  O
  O6       1.0000 0.17010  0.00650  0.20600  Biso   1.000  O
  O7       1.0000 0.97000  0.78020  0.23430  Biso   1.000  O
  O8       1.0000 0.24550  0.98840  0.33190  Biso   1.000  O
  O9       1.0000 0.12210  0.72430  0.18190  Biso   1.000  O
  O10      1.0000 0.91980  0.87880  0.25510  Biso   1.000  O
  O11      1.0000 0.13770  0.79510  0.08550  Biso   1.000  O
  O12      1.0000 0.05670  0.94750  0.12000  Biso   1.000  O
  O13      1.0000 0.37320  0.76210  0.28080  Biso   1.000  O
  O14      1.0000 0.98310  0.97820  0.23630  Biso   1.000  O
  O15      1.0000 0.06390  0.95500  0.36280  Biso   1.000  O
  O16      1.0000 0.18800  0.72610  0.31630  Biso   1.000  O
  O17      1.0000 0.48120  0.84970  0.28280  Biso   1.000  O
  O18      1.0000 0.95710  0.86870  0.39000  Biso   1.000  O
  O19      1.0000 0.42470  0.94950  0.30380  Biso   1.000  O
  O20      1.0000 0.22750  0.91840  0.42890  Biso   1.000  O
  O21      1.0000 0.29070  0.87240  0.29630  Biso   1.000  O
  O22      1.0000 0.00010  0.76580  0.36950  Biso   1.000  O
  O23      1.0000 0.22050  0.88980  0.09480  Biso   1.000  O
  O24      1.0000 0.41480  0.87880  0.40140  Biso   1.000  O
  O25      1.0000 0.33320  0.94980  0.18010  Biso   1.000  O
  O26      1.0000 0.11390  0.84450  0.32760  Biso   1.000  O
  O27      1.0000 0.12060  0.83200  0.46490  Biso   1.000  O
  O28      1.0000 0.30640  0.75470  0.15050  Biso   1.000  O
  C1       1.0000 0.24750  0.68530  0.48410  Biso   1.000  C
  H1       1.0000 0.30770  0.69980  0.46810  Biso   1.000  H
  C2       1.0000 0.25340  0.63840  0.52240  Biso   1.000  C
  H2       1.0000 0.31160  0.61680  0.52330  Biso   1.000  H
  C3       1.0000 0.16870  0.62570  0.55850  Biso   1.000  C
  H3       1.0000 0.17460  0.60010  0.59320  Biso   1.000  H
  C4       1.0000 0.07640  0.64980  0.54440  Biso   1.000  C
  H4       1.0000 0.01650  0.63700  0.56300  Biso   1.000  H
  C5       1.0000 0.07410  0.69450  0.50110  Biso   1.000  C
  H5       1.0000 0.01300  0.71360  0.49390  Biso   1.000  H
  N1       1.0000 0.15860  0.70990  0.47010  Biso   1.000  N
  Mo12     1.0000 0.16051  0.44243  0.12005  Biso   1.000  Mo
  Mo13     1.0000 0.54120  0.41435  0.32105  Biso   1.000  Mo
  Mo14     1.0000 0.09185  0.31078  0.14376  Biso   1.000  Mo
  Mo15     1.0000 0.46380  0.27861  0.35138  Biso   1.000  Mo
  Mo16     1.0000 0.55990  0.31439  0.18125  Biso   1.000  Mo
  Mo17     1.0000 0.24713  0.22714  0.26104  Biso   1.000  Mo
  Mo18     1.0000 0.39385  0.49487  0.20780  Biso   1.000  Mo
  Mo19     1.0000 0.22270  0.31867  0.39542  Biso   1.000  Mo
  Mo20     1.0000 0.29828  0.45711  0.36613  Biso   1.000  Mo
  Mo21     1.0000 0.06468  0.40377  0.27624  Biso   1.000  Mo
  Mo22     1.0000 0.41310  0.39379  0.06937  Biso   1.000  Mo
  P2       1.0000 0.31770  0.36107  0.23264  Biso   1.000  P
  Zn2      1.0000 0.34538  0.26955  0.09949  Biso   1.000  Zn
  O29      1.0000 0.11240  0.35210  0.34250  Biso   1.000  O
  O30      1.0000 0.31730  0.31700  0.28430  Biso   1.000  O
  O31      1.0000 0.36610  0.41050  0.26630  Biso   1.000  O
  O32      1.0000 0.19250  0.28870  0.09450  Biso   1.000  O
  O33      1.0000 0.51250  0.34970  0.36550  Biso   1.000  O
  O34      1.0000 0.32990  0.50650  0.29400  Biso   1.000  O
  O35      1.0000 0.53000  0.28020  0.26570  Biso   1.000  O
  O36      1.0000 0.25450  0.48840  0.16810  Biso   1.000  O
  O37      1.0000 0.37790  0.22430  0.31810  Biso   1.000  O
  O38      1.0000 0.58020  0.37880  0.24490  Biso   1.000  O
  O39      1.0000 0.36230  0.29510  0.41450  Biso   1.000  O
  O40      1.0000 0.44330  0.44750  0.38000  Biso   1.000  O
  O41      1.0000 0.12680  0.26210  0.21920  Biso   1.000  O
  O42      1.0000 0.51690  0.47820  0.26370  Biso   1.000  O
  O43      1.0000 0.43610  0.45500  0.13720  Biso   1.000  O
  O44      1.0000 0.31200  0.22610  0.18370  Biso   1.000  O
  O45      1.0000 0.01880  0.34970  0.21720  Biso   1.000  O
  O46      1.0000 0.54290  0.36870  0.11000  Biso   1.000  O
  O47      1.0000 0.07530  0.44950  0.19620  Biso   1.000  O
  O48      1.0000 0.27250  0.41840  0.07110  Biso   1.000  O
  O49      1.0000 0.20930  0.37240  0.20370  Biso   1.000  O
  O50      1.0000 0.49990  0.26580  0.13050  Biso   1.000  O
  O51      1.0000 0.27950  0.38980  0.40520  Biso   1.000  O
  O52      1.0000 0.08520  0.37880  0.09860  Biso   1.000  O
  O53      1.0000 0.16680  0.44980  0.31990  Biso   1.000  O
  O54      1.0000 0.38610  0.34450  0.17240  Biso   1.000  O
  O55      1.0000 0.37940  0.33200  0.03510  Biso   1.000  O
  O56      1.0000 0.19360  0.25470  0.34950  Biso   1.000  O
  C6       1.0000 0.25250  0.18530  0.01590  Biso   1.000  C
  H6       1.0000 0.19230  0.19980  0.03190  Biso   1.000  H
  C7       1.0000 0.24660  0.13840  0.97760  Biso   1.000  C
  H7       1.0000 0.18840  0.11680  0.97670  Biso   1.000  H
  C8       1.0000 0.33130  0.12570  0.94150  Biso   1.000  C
  H8       1.0000 0.32540  0.10010  0.90680  Biso   1.000  H
  C9       1.0000 0.42360  0.14980  0.95560  Biso   1.000  C
  H9       1.0000 0.48350  0.13700  0.93700  Biso   1.000  H
  C10      1.0000 0.42590  0.19450  0.99890  Biso   1.000  C
  H10      1.0000 0.48700  0.21360  0.00610  Biso   1.000  H
  N2       1.0000 0.34140  0.20990  0.02990  Biso   1.000  N
  Mo23     1.0000 0.66051  0.05757  0.62005  Biso   1.000  Mo
  Mo24     1.0000 0.04120  0.08565  0.82105  Biso   1.000  Mo
  Mo25     1.0000 0.59185  0.18922  0.64376  Biso   1.000  Mo
  Mo26     1.0000 0.96380  0.22139  0.85138  Biso   1.000  Mo
  Mo27     1.0000 0.05990  0.18561  0.68125  Biso   1.000  Mo
  Mo28     1.0000 0.74713  0.27286  0.76104  Biso   1.000  Mo
  Mo29     1.0000 0.89385  0.00513  0.70780  Biso   1.000  Mo
  Mo30     1.0000 0.72270  0.18133  0.89542  Biso   1.000  Mo
  Mo31     1.0000 0.79828  0.04289  0.86613  Biso   1.000  Mo
  Mo32     1.0000 0.56468  0.09623  0.77624  Biso   1.000  Mo
  Mo33     1.0000 0.91310  0.10621  0.56937  Biso   1.000  Mo
  P3       1.0000 0.81770  0.13893  0.73264  Biso   1.000  P
  Zn3      1.0000 0.84538  0.23045  0.59949  Biso   1.000  Zn
  O57      1.0000 0.61240  0.14790  0.84250  Biso   1.000  O
  O58      1.0000 0.81730  0.18300  0.78430  Biso   1.000  O
  O59      1.0000 0.86610  0.08950  0.76630  Biso   1.000  O
  O60      1.0000 0.69250  0.21130  0.59450  Biso   1.000  O
  O61      1.0000 0.01250  0.15030  0.86550  Biso   1.000  O
  O62      1.0000 0.82990  0.99350  0.79400  Biso   1.000  O
  O63      1.0000 0.03000  0.21980  0.76570  Biso   1.000  O
  O64      1.0000 0.75450  0.01160  0.66810  Biso   1.000  O
  O65      1.0000 0.87790  0.27570  0.81810  Biso   1.000  O
  O66      1.0000 0.08020  0.12120  0.74490  Biso   1.000  O
  O67      1.0000 0.86230  0.20490  0.91450  Biso   1.000  O
  O68      1.0000 0.94330  0.05250  0.88000  Biso   1.000  O
  O69      1.0000 0.62680  0.23790  0.71920  Biso   1.000  O
  O70      1.0000 0.01690  0.02180  0.76370  Biso   1.000  O
  O71      1.0000 0.93610  0.04500  0.63720  Biso   1.000  O
  O72      1.0000 0.81200  0.27390  0.68370  Biso   1.000  O
  O73      1.0000 0.51880  0.15030  0.71720  Biso   1.000  O
  O74      1.0000 0.04290  0.13130  0.61000  Biso   1.000  O
  O75      1.0000 0.57530  0.05050  0.69620  Biso   1.000  O
  O76      1.0000 0.77250  0.08160  0.57110  Biso   1.000  O
  O77      1.0000 0.70930  0.12760  0.70370  Biso   1.000  O
  O78      1.0000 0.99990  0.23420  0.63050  Biso   1.000  O
  O79      1.0000 0.77950  0.11020  0.90520  Biso   1.000  O
  O80      1.0000 0.58520  0.12120  0.59860  Biso   1.000  O
  O81      1.0000 0.66680  0.05020  0.81990  Biso   1.000  O
  O82      1.0000 0.88610  0.15550  0.67240  Biso   1.000  O
  O83      1.0000 0.87940  0.16800  0.53510  Biso   1.000  O
  O84      1.0000 0.69360  0.24530  0.84950  Biso   1.000  O
  C11      1.0000 0.75250  0.31470  0.51590  Biso   1.000  C
  H11      1.0000 0.69230  0.30020  0.53190  Biso   1.000  H
  C12      1.0000 0.74660  0.36160  0.47760  Biso   1.000  C
  H12      1.0000 0.68840  0.38320  0.47670  Biso   1.000  H
  C13      1.0000 0.83130  0.37430  0.44150  Biso   1.000  C
  H13      1.0000 0.82540  0.39990  0.40680  Biso   1.000  H
  C14      1.0000 0.92360  0.35020  0.45560  Biso   1.000  C
  H14      1.0000 0.98350  0.36300  0.43700  Biso   1.000  H
  C15      1.0000 0.92590  0.30550  0.49890  Biso   1.000  C
  H15      1.0000 0.98700  0.28640  0.50610  Biso   1.000  H
  N3       1.0000 0.84140  0.29010  0.52990  Biso   1.000  N
  Mo34     1.0000 0.83949  0.55757  0.87995  Biso   1.000  Mo
  Mo35     1.0000 0.45880  0.58565  0.67895  Biso   1.000  Mo
  Mo36     1.0000 0.90815  0.68922  0.85624  Biso   1.000  Mo
  Mo37     1.0000 0.53620  0.72139  0.64862  Biso   1.000  Mo
  Mo38     1.0000 0.44010  0.68561  0.81875  Biso   1.000  Mo
  Mo39     1.0000 0.75287  0.77286  0.73896  Biso   1.000  Mo
  Mo40     1.0000 0.60615  0.50513  0.79220  Biso   1.000  Mo
  Mo41     1.0000 0.77730  0.68133  0.60458  Biso   1.000  Mo
  Mo42     1.0000 0.70172  0.54289  0.63387  Biso   1.000  Mo
  Mo43     1.0000 0.93532  0.59623  0.72376  Biso   1.000  Mo
  Mo44     1.0000 0.58690  0.60621  0.93063  Biso   1.000  Mo
  P4       1.0000 0.68230  0.63893  0.76736  Biso   1.000  P
  Zn4      1.0000 0.65462  0.73045  0.90051  Biso   1.000  Zn
  O85      1.0000 0.88760  0.64790  0.65750  Biso   1.000  O
  O86      1.0000 0.68270  0.68300  0.71570  Biso   1.000  O
  O87      1.0000 0.63390  0.58950  0.73370  Biso   1.000  O
  O88      1.0000 0.80750  0.71130  0.90550  Biso   1.000  O
  O89      1.0000 0.48750  0.65030  0.63450  Biso   1.000  O
  O90      1.0000 0.67010  0.49350  0.70600  Biso   1.000  O
  O91      1.0000 0.47000  0.71980  0.73430  Biso   1.000  O
  O92      1.0000 0.74550  0.51160  0.83190  Biso   1.000  O
  O93      1.0000 0.62210  0.77570  0.68190  Biso   1.000  O
  O94      1.0000 0.41980  0.62120  0.75510  Biso   1.000  O
  O95      1.0000 0.63770  0.70490  0.58550  Biso   1.000  O
  O96      1.0000 0.55670  0.55250  0.62000  Biso   1.000  O
  O97      1.0000 0.87320  0.73790  0.78080  Biso   1.000  O
  O98      1.0000 0.48310  0.52180  0.73630  Biso   1.000  O
  O99      1.0000 0.56390  0.54500  0.86280  Biso   1.000  O
  O100     1.0000 0.68800  0.77390  0.81630  Biso   1.000  O
  O101     1.0000 0.98120  0.65030  0.78280  Biso   1.000  O
  O102     1.0000 0.45710  0.63130  0.89000  Biso   1.000  O
  O103     1.0000 0.92470  0.55050  0.80380  Biso   1.000  O
  O104     1.0000 0.72750  0.58160  0.92890  Biso   1.000  O
  O105     1.0000 0.79070  0.62760  0.79630  Biso   1.000  O
  O106     1.0000 0.50010  0.73420  0.86950  Biso   1.000  O
  O107     1.0000 0.72050  0.61020  0.59480  Biso   1.000  O
  O108     1.0000 0.91480  0.62120  0.90140  Biso   1.000  O
  O109     1.0000 0.83320  0.55020  0.68010  Biso   1.000  O
  O110     1.0000 0.61390  0.65550  0.82760  Biso   1.000  O
  O111     1.0000 0.62060  0.66800  0.96490  Biso   1.000  O
  O112     1.0000 0.80640  0.74530  0.65050  Biso   1.000  O
  C16      1.0000 0.74750  0.81470  0.98410  Biso   1.000  C
  H16      1.0000 0.80770  0.80020  0.96810  Biso   1.000  H
  C17      1.0000 0.75340  0.86160  0.02240  Biso   1.000  C
  H17      1.0000 0.81160  0.88320  0.02330  Biso   1.000  H
  C18      1.0000 0.66870  0.87430  0.05850  Biso   1.000  C
  H18      1.0000 0.67460  0.89990  0.09320  Biso   1.000  H
  C19      1.0000 0.57640  0.85020  0.04440  Biso   1.000  C
  H19      1.0000 0.51650  0.86300  0.06300  Biso   1.000  H
  C20      1.0000 0.57410  0.80550  0.00110  Biso   1.000  C
  H20      1.0000 0.51300  0.78640  0.99390  Biso   1.000  H
  N4       1.0000 0.65860  0.79010  0.97010  Biso   1.000  N
