data_image0
_cell_length_a       18.0477
_cell_length_b       10.3801
_cell_length_c       23.4227
_cell_angle_alpha    90
_cell_angle_beta     96.743
_cell_angle_gamma    90

_symmetry_space_group_name_H-M    "P 1"
_symmetry_int_tables_number       1

loop_
  _symmetry_equiv_pos_as_xyz
  'x, y, z'

loop_
  _atom_site_label
  _atom_site_occupancy
  _atom_site_fract_x
  _atom_site_fract_y
  _atom_site_fract_z
  _atom_site_thermal_displace_type
  _atom_site_B_iso_or_equiv
  _atom_site_type_symbol
  C1       1.0000 0.16557  0.58380  0.23465  Biso   1.000  C
  C2       1.0000 0.09842  0.51550  0.22971  Biso   1.000  C
  H1       1.0000 0.08010  0.48450  0.26360  Biso   1.000  H
  C3       1.0000 0.05775  0.49180  0.17691  Biso   1.000  C
  H2       1.0000 0.01260  0.44410  0.17490  Biso   1.000  H
  C4       1.0000 0.08256  0.53730  0.12695  Biso   1.000  C
  C5       1.0000 0.15191  0.60100  0.13043  Biso   1.000  C
  C6       1.0000 0.19191  0.62260  0.18415  Biso   1.000  C
  H3       1.0000 0.23870  0.66530  0.18620  Biso   1.000  H
  C7       1.0000 0.20621  0.61260  0.29244  Biso   1.000  C
  C8       1.0000 0.20500  0.52580  0.33750  Biso   1.000  C
  H4       1.0000 0.17940  0.44630  0.33060  Biso   1.000  H
  C9       1.0000 0.24006  0.55140  0.39250  Biso   1.000  C
  C10      1.0000 0.27602  0.67040  0.40359  Biso   1.000  C
  C11      1.0000 0.27792  0.75700  0.35845  Biso   1.000  C
  H5       1.0000 0.30240  0.83750  0.36520  Biso   1.000  H
  C12      1.0000 0.24465  0.72720  0.30396  Biso   1.000  C
  H6       1.0000 0.24820  0.78670  0.27360  Biso   1.000  H
  C13      1.0000 0.18594  0.64670  0.07874  Biso   1.000  C
  C14      1.0000 0.97360  0.45540  0.07101  Biso   1.000  C
  H7       1.0000 0.95110  0.45110  0.03090  Biso   1.000  H
  H8       1.0000 0.94060  0.50360  0.09370  Biso   1.000  H
  H9       1.0000 0.98060  0.36800  0.08650  Biso   1.000  H
  C15      1.0000 0.24040  0.44590  0.43626  Biso   1.000  C
  C16      1.0000 0.33525  0.82020  0.47083  Biso   1.000  C
  H10      1.0000 0.34890  0.82920  0.51240  Biso   1.000  H
  H11      1.0000 0.29730  0.88450  0.45760  Biso   1.000  H
  H12      1.0000 0.37950  0.83340  0.45100  Biso   1.000  H
  O1       1.0000 0.25567  0.63396  0.08085  Biso   1.000  O
  O2       1.0000 0.14412  0.69773  0.03824  Biso   1.000  O
  O3       1.0000 0.04471  0.51929  0.07392  Biso   1.000  O
  O4       1.0000 0.18496  0.37146  0.43091  Biso   1.000  O
  O5       1.0000 0.29621  0.43638  0.47347  Biso   1.000  O
  O6       1.0000 0.30608  0.69405  0.45841  Biso   1.000  O
  Cu1      1.0000 0.18508  0.21262  0.47519  Biso   1.000  Cu
  C17      1.0000 0.33443  0.08380  0.26535  Biso   1.000  C
  C18      1.0000 0.40158  0.01550  0.27029  Biso   1.000  C
  H13      1.0000 0.41990  0.98450  0.23640  Biso   1.000  H
  C19      1.0000 0.44225  0.99180  0.32309  Biso   1.000  C
  H14      1.0000 0.48740  0.94410  0.32510  Biso   1.000  H
  C20      1.0000 0.41744  0.03730  0.37305  Biso   1.000  C
  C21      1.0000 0.34809  0.10100  0.36957  Biso   1.000  C
  C22      1.0000 0.30809  0.12260  0.31585  Biso   1.000  C
  H15      1.0000 0.26130  0.16530  0.31380  Biso   1.000  H
  C23      1.0000 0.29379  0.11260  0.20756  Biso   1.000  C
  C24      1.0000 0.29500  0.02580  0.16250  Biso   1.000  C
  H16      1.0000 0.32060  0.94630  0.16940  Biso   1.000  H
  C25      1.0000 0.25994  0.05140  0.10750  Biso   1.000  C
  C26      1.0000 0.22398  0.17040  0.09641  Biso   1.000  C
  C27      1.0000 0.22208  0.25700  0.14155  Biso   1.000  C
  H17      1.0000 0.19760  0.33750  0.13480  Biso   1.000  H
  C28      1.0000 0.25535  0.22720  0.19604  Biso   1.000  C
  H18      1.0000 0.25180  0.28670  0.22640  Biso   1.000  H
  C29      1.0000 0.31406  0.14670  0.42126  Biso   1.000  C
  C30      1.0000 0.52640  0.95540  0.42899  Biso   1.000  C
  H19      1.0000 0.54890  0.95110  0.46910  Biso   1.000  H
  H20      1.0000 0.55940  0.00360  0.40630  Biso   1.000  H
  H21      1.0000 0.51940  0.86800  0.41350  Biso   1.000  H
  C31      1.0000 0.25960  0.94590  0.06374  Biso   1.000  C
  C32      1.0000 0.16475  0.32020  0.02917  Biso   1.000  C
  H22      1.0000 0.15110  0.32920  0.98760  Biso   1.000  H
  H23      1.0000 0.20270  0.38450  0.04240  Biso   1.000  H
  H24      1.0000 0.12050  0.33340  0.04900  Biso   1.000  H
  O7       1.0000 0.24433  0.13396  0.41915  Biso   1.000  O
  O8       1.0000 0.35588  0.19773  0.46176  Biso   1.000  O
  O9       1.0000 0.45529  0.01929  0.42608  Biso   1.000  O
  O10      1.0000 0.31504  0.87146  0.06909  Biso   1.000  O
  O11      1.0000 0.20379  0.93638  0.02653  Biso   1.000  O
  O12      1.0000 0.19392  0.19405  0.04159  Biso   1.000  O
  Cu2      1.0000 0.31492  0.71262  0.02481  Biso   1.000  Cu
  C33      1.0000 0.33443  0.91620  0.76535  Biso   1.000  C
  C34      1.0000 0.40158  0.98450  0.77029  Biso   1.000  C
  H25      1.0000 0.41990  0.01550  0.73640  Biso   1.000  H
  C35      1.0000 0.44225  0.00820  0.82309  Biso   1.000  C
  H26      1.0000 0.48740  0.05590  0.82510  Biso   1.000  H
  C36      1.0000 0.41744  0.96270  0.87305  Biso   1.000  C
  C37      1.0000 0.34809  0.89900  0.86957  Biso   1.000  C
  C38      1.0000 0.30809  0.87740  0.81585  Biso   1.000  C
  H27      1.0000 0.26130  0.83470  0.81380  Biso   1.000  H
  C39      1.0000 0.29379  0.88740  0.70756  Biso   1.000  C
  C40      1.0000 0.29500  0.97420  0.66250  Biso   1.000  C
  H28      1.0000 0.32060  0.05370  0.66940  Biso   1.000  H
  C41      1.0000 0.25994  0.94860  0.60750  Biso   1.000  C
  C42      1.0000 0.22398  0.82960  0.59641  Biso   1.000  C
  C43      1.0000 0.22208  0.74300  0.64155  Biso   1.000  C
  H29      1.0000 0.19760  0.66250  0.63480  Biso   1.000  H
  C44      1.0000 0.25535  0.77280  0.69604  Biso   1.000  C
  H30      1.0000 0.25180  0.71330  0.72640  Biso   1.000  H
  C45      1.0000 0.31406  0.85330  0.92126  Biso   1.000  C
  C46      1.0000 0.52640  0.04460  0.92899  Biso   1.000  C
  H31      1.0000 0.54890  0.04890  0.96910  Biso   1.000  H
  H32      1.0000 0.55940  0.99640  0.90630  Biso   1.000  H
  H33      1.0000 0.51940  0.13200  0.91350  Biso   1.000  H
  C47      1.0000 0.25960  0.05410  0.56374  Biso   1.000  C
  C48      1.0000 0.16475  0.67980  0.52917  Biso   1.000  C
  H34      1.0000 0.15110  0.67080  0.48760  Biso   1.000  H
  H35      1.0000 0.20270  0.61550  0.54240  Biso   1.000  H
  H36      1.0000 0.12050  0.66660  0.54900  Biso   1.000  H
  O13      1.0000 0.24433  0.86604  0.91915  Biso   1.000  O
  O14      1.0000 0.35588  0.80227  0.96176  Biso   1.000  O
  O15      1.0000 0.45529  0.98071  0.92608  Biso   1.000  O
  O16      1.0000 0.31504  0.12854  0.56909  Biso   1.000  O
  O17      1.0000 0.20379  0.06362  0.52653  Biso   1.000  O
  O18      1.0000 0.19392  0.80595  0.54159  Biso   1.000  O
  Cu3      1.0000 0.31492  0.28738  0.52481  Biso   1.000  Cu
  C49      1.0000 0.16557  0.41620  0.73465  Biso   1.000  C
  C50      1.0000 0.09842  0.48450  0.72971  Biso   1.000  C
  H37      1.0000 0.08010  0.51550  0.76360  Biso   1.000  H
  C51      1.0000 0.05775  0.50820  0.67691  Biso   1.000  C
  H38      1.0000 0.01260  0.55590  0.67490  Biso   1.000  H
  C52      1.0000 0.08256  0.46270  0.62695  Biso   1.000  C
  C53      1.0000 0.15191  0.39900  0.63043  Biso   1.000  C
  C54      1.0000 0.19191  0.37740  0.68415  Biso   1.000  C
  H39      1.0000 0.23870  0.33470  0.68620  Biso   1.000  H
  C55      1.0000 0.20621  0.38740  0.79244  Biso   1.000  C
  C56      1.0000 0.20500  0.47420  0.83750  Biso   1.000  C
  H40      1.0000 0.17940  0.55370  0.83060  Biso   1.000  H
  C57      1.0000 0.24006  0.44860  0.89250  Biso   1.000  C
  C58      1.0000 0.27602  0.32960  0.90359  Biso   1.000  C
  C59      1.0000 0.27792  0.24300  0.85845  Biso   1.000  C
  H41      1.0000 0.30240  0.16250  0.86520  Biso   1.000  H
  C60      1.0000 0.24465  0.27280  0.80396  Biso   1.000  C
  H42      1.0000 0.24820  0.21330  0.77360  Biso   1.000  H
  C61      1.0000 0.18594  0.35330  0.57874  Biso   1.000  C
  C62      1.0000 0.97360  0.54460  0.57101  Biso   1.000  C
  H43      1.0000 0.95110  0.54890  0.53090  Biso   1.000  H
  H44      1.0000 0.94060  0.49640  0.59370  Biso   1.000  H
  H45      1.0000 0.98060  0.63200  0.58650  Biso   1.000  H
  C63      1.0000 0.24040  0.55410  0.93626  Biso   1.000  C
  C64      1.0000 0.33525  0.17980  0.97083  Biso   1.000  C
  H46      1.0000 0.34890  0.17080  0.01240  Biso   1.000  H
  H47      1.0000 0.29730  0.11550  0.95760  Biso   1.000  H
  H48      1.0000 0.37950  0.16660  0.95100  Biso   1.000  H
  O19      1.0000 0.25567  0.36604  0.58085  Biso   1.000  O
  O20      1.0000 0.14412  0.30227  0.53824  Biso   1.000  O
  O21      1.0000 0.04471  0.48071  0.57392  Biso   1.000  O
  O22      1.0000 0.18496  0.62854  0.93091  Biso   1.000  O
  O23      1.0000 0.29621  0.56362  0.97347  Biso   1.000  O
  O24      1.0000 0.30608  0.30595  0.95841  Biso   1.000  O
  Cu4      1.0000 0.18508  0.78738  0.97519  Biso   1.000  Cu
  C65      1.0000 0.66557  0.08380  0.23465  Biso   1.000  C
  C66      1.0000 0.59842  0.01550  0.22971  Biso   1.000  C
  H49      1.0000 0.58010  0.98450  0.26360  Biso   1.000  H
  C67      1.0000 0.55775  0.99180  0.17691  Biso   1.000  C
  H50      1.0000 0.51260  0.94410  0.17490  Biso   1.000  H
  C68      1.0000 0.58256  0.03730  0.12695  Biso   1.000  C
  C69      1.0000 0.65191  0.10100  0.13043  Biso   1.000  C
  C70      1.0000 0.69191  0.12260  0.18415  Biso   1.000  C
  H51      1.0000 0.73870  0.16530  0.18620  Biso   1.000  H
  C71      1.0000 0.70621  0.11260  0.29244  Biso   1.000  C
  C72      1.0000 0.70500  0.02580  0.33750  Biso   1.000  C
  H52      1.0000 0.67940  0.94630  0.33060  Biso   1.000  H
  C73      1.0000 0.74006  0.05140  0.39250  Biso   1.000  C
  C74      1.0000 0.77602  0.17040  0.40359  Biso   1.000  C
  C75      1.0000 0.77792  0.25700  0.35845  Biso   1.000  C
  H53      1.0000 0.80240  0.33750  0.36520  Biso   1.000  H
  C76      1.0000 0.74465  0.22720  0.30396  Biso   1.000  C
  H54      1.0000 0.74820  0.28670  0.27360  Biso   1.000  H
  C77      1.0000 0.68594  0.14670  0.07874  Biso   1.000  C
  C78      1.0000 0.47360  0.95540  0.07101  Biso   1.000  C
  H55      1.0000 0.45110  0.95110  0.03090  Biso   1.000  H
  H56      1.0000 0.44060  0.00360  0.09370  Biso   1.000  H
  H57      1.0000 0.48060  0.86800  0.08650  Biso   1.000  H
  C79      1.0000 0.74040  0.94590  0.43626  Biso   1.000  C
  C80      1.0000 0.83525  0.32020  0.47083  Biso   1.000  C
  H58      1.0000 0.84890  0.32920  0.51240  Biso   1.000  H
  H59      1.0000 0.79730  0.38450  0.45760  Biso   1.000  H
  H60      1.0000 0.87950  0.33340  0.45100  Biso   1.000  H
  O25      1.0000 0.75567  0.13396  0.08085  Biso   1.000  O
  O26      1.0000 0.64412  0.19773  0.03824  Biso   1.000  O
  O27      1.0000 0.54471  0.01929  0.07392  Biso   1.000  O
  O28      1.0000 0.68496  0.87146  0.43091  Biso   1.000  O
  O29      1.0000 0.79621  0.93638  0.47347  Biso   1.000  O
  O30      1.0000 0.80608  0.19405  0.45841  Biso   1.000  O
  Cu5      1.0000 0.68508  0.71262  0.47519  Biso   1.000  Cu
  C81      1.0000 0.83443  0.58380  0.26535  Biso   1.000  C
  C82      1.0000 0.90158  0.51550  0.27029  Biso   1.000  C
  H61      1.0000 0.91990  0.48450  0.23640  Biso   1.000  H
  C83      1.0000 0.94225  0.49180  0.32309  Biso   1.000  C
  H62      1.0000 0.98740  0.44410  0.32510  Biso   1.000  H
  C84      1.0000 0.91744  0.53730  0.37305  Biso   1.000  C
  C85      1.0000 0.84809  0.60100  0.36957  Biso   1.000  C
  C86      1.0000 0.80809  0.62260  0.31585  Biso   1.000  C
  H63      1.0000 0.76130  0.66530  0.31380  Biso   1.000  H
  C87      1.0000 0.79379  0.61260  0.20756  Biso   1.000  C
  C88      1.0000 0.79500  0.52580  0.16250  Biso   1.000  C
  H64      1.0000 0.82060  0.44630  0.16940  Biso   1.000  H
  C89      1.0000 0.75994  0.55140  0.10750  Biso   1.000  C
  C90      1.0000 0.72398  0.67040  0.09641  Biso   1.000  C
  C91      1.0000 0.72208  0.75700  0.14155  Biso   1.000  C
  H65      1.0000 0.69760  0.83750  0.13480  Biso   1.000  H
  C92      1.0000 0.75535  0.72720  0.19604  Biso   1.000  C
  H66      1.0000 0.75180  0.78670  0.22640  Biso   1.000  H
  C93      1.0000 0.81406  0.64670  0.42126  Biso   1.000  C
  C94      1.0000 0.02640  0.45540  0.42899  Biso   1.000  C
  H67      1.0000 0.04890  0.45110  0.46910  Biso   1.000  H
  H68      1.0000 0.05940  0.50360  0.40630  Biso   1.000  H
  H69      1.0000 0.01940  0.36800  0.41350  Biso   1.000  H
  C95      1.0000 0.75960  0.44590  0.06374  Biso   1.000  C
  C96      1.0000 0.66475  0.82020  0.02917  Biso   1.000  C
  H70      1.0000 0.65110  0.82920  0.98760  Biso   1.000  H
  H71      1.0000 0.70270  0.88450  0.04240  Biso   1.000  H
  H72      1.0000 0.62050  0.83340  0.04900  Biso   1.000  H
  O31      1.0000 0.74433  0.63396  0.41915  Biso   1.000  O
  O32      1.0000 0.85588  0.69773  0.46176  Biso   1.000  O
  O33      1.0000 0.95529  0.51929  0.42608  Biso   1.000  O
  O34      1.0000 0.81504  0.37146  0.06909  Biso   1.000  O
  O35      1.0000 0.70379  0.43638  0.02653  Biso   1.000  O
  O36      1.0000 0.69392  0.69405  0.04159  Biso   1.000  O
  Cu6      1.0000 0.81492  0.21262  0.02481  Biso   1.000  Cu
  C97      1.0000 0.83443  0.41620  0.76535  Biso   1.000  C
  C98      1.0000 0.90158  0.48450  0.77029  Biso   1.000  C
  H73      1.0000 0.91990  0.51550  0.73640  Biso   1.000  H
  C99      1.0000 0.94225  0.50820  0.82309  Biso   1.000  C
  H74      1.0000 0.98740  0.55590  0.82510  Biso   1.000  H
  C100     1.0000 0.91744  0.46270  0.87305  Biso   1.000  C
  C101     1.0000 0.84809  0.39900  0.86957  Biso   1.000  C
  C102     1.0000 0.80809  0.37740  0.81585  Biso   1.000  C
  H75      1.0000 0.76130  0.33470  0.81380  Biso   1.000  H
  C103     1.0000 0.79379  0.38740  0.70756  Biso   1.000  C
  C104     1.0000 0.79500  0.47420  0.66250  Biso   1.000  C
  H76      1.0000 0.82060  0.55370  0.66940  Biso   1.000  H
  C105     1.0000 0.75994  0.44860  0.60750  Biso   1.000  C
  C106     1.0000 0.72398  0.32960  0.59641  Biso   1.000  C
  C107     1.0000 0.72208  0.24300  0.64155  Biso   1.000  C
  H77      1.0000 0.69760  0.16250  0.63480  Biso   1.000  H
  C108     1.0000 0.75535  0.27280  0.69604  Biso   1.000  C
  H78      1.0000 0.75180  0.21330  0.72640  Biso   1.000  H
  C109     1.0000 0.81406  0.35330  0.92126  Biso   1.000  C
  C110     1.0000 0.02640  0.54460  0.92899  Biso   1.000  C
  H79      1.0000 0.04890  0.54890  0.96910  Biso   1.000  H
  H80      1.0000 0.05940  0.49640  0.90630  Biso   1.000  H
  H81      1.0000 0.01940  0.63200  0.91350  Biso   1.000  H
  C111     1.0000 0.75960  0.55410  0.56374  Biso   1.000  C
  C112     1.0000 0.66475  0.17980  0.52917  Biso   1.000  C
  H82      1.0000 0.65110  0.17080  0.48760  Biso   1.000  H
  H83      1.0000 0.70270  0.11550  0.54240  Biso   1.000  H
  H84      1.0000 0.62050  0.16660  0.54900  Biso   1.000  H
  O37      1.0000 0.74433  0.36604  0.91915  Biso   1.000  O
  O38      1.0000 0.85588  0.30227  0.96176  Biso   1.000  O
  O39      1.0000 0.95529  0.48071  0.92608  Biso   1.000  O
  O40      1.0000 0.81504  0.62854  0.56909  Biso   1.000  O
  O41      1.0000 0.70379  0.56362  0.52653  Biso   1.000  O
  O42      1.0000 0.69392  0.30595  0.54159  Biso   1.000  O
  Cu7      1.0000 0.81492  0.78738  0.52481  Biso   1.000  Cu
  C113     1.0000 0.66557  0.91620  0.73465  Biso   1.000  C
  C114     1.0000 0.59842  0.98450  0.72971  Biso   1.000  C
  H85      1.0000 0.58010  0.01550  0.76360  Biso   1.000  H
  C115     1.0000 0.55775  0.00820  0.67691  Biso   1.000  C
  H86      1.0000 0.51260  0.05590  0.67490  Biso   1.000  H
  C116     1.0000 0.58256  0.96270  0.62695  Biso   1.000  C
  C117     1.0000 0.65191  0.89900  0.63043  Biso   1.000  C
  C118     1.0000 0.69191  0.87740  0.68415  Biso   1.000  C
  H87      1.0000 0.73870  0.83470  0.68620  Biso   1.000  H
  C119     1.0000 0.70621  0.88740  0.79244  Biso   1.000  C
  C120     1.0000 0.70500  0.97420  0.83750  Biso   1.000  C
  H88      1.0000 0.67940  0.05370  0.83060  Biso   1.000  H
  C121     1.0000 0.74006  0.94860  0.89250  Biso   1.000  C
  C122     1.0000 0.77602  0.82960  0.90359  Biso   1.000  C
  C123     1.0000 0.77792  0.74300  0.85845  Biso   1.000  C
  H89      1.0000 0.80240  0.66250  0.86520  Biso   1.000  H
  C124     1.0000 0.74465  0.77280  0.80396  Biso   1.000  C
  H90      1.0000 0.74820  0.71330  0.77360  Biso   1.000  H
  C125     1.0000 0.68594  0.85330  0.57874  Biso   1.000  C
  C126     1.0000 0.47360  0.04460  0.57101  Biso   1.000  C
  H91      1.0000 0.45110  0.04890  0.53090  Biso   1.000  H
  H92      1.0000 0.44060  0.99640  0.59370  Biso   1.000  H
  H93      1.0000 0.48060  0.13200  0.58650  Biso   1.000  H
  C127     1.0000 0.74040  0.05410  0.93626  Biso   1.000  C
  C128     1.0000 0.83525  0.67980  0.97083  Biso   1.000  C
  H94      1.0000 0.84890  0.67080  0.01240  Biso   1.000  H
  H95      1.0000 0.79730  0.61550  0.95760  Biso   1.000  H
  H96      1.0000 0.87950  0.66660  0.95100  Biso   1.000  H
  O43      1.0000 0.75567  0.86604  0.58085  Biso   1.000  O
  O44      1.0000 0.64412  0.80227  0.53824  Biso   1.000  O
  O45      1.0000 0.54471  0.98071  0.57392  Biso   1.000  O
  O46      1.0000 0.68496  0.12854  0.93091  Biso   1.000  O
  O47      1.0000 0.79621  0.06362  0.97347  Biso   1.000  O
  O48      1.0000 0.80608  0.80595  0.95841  Biso   1.000  O
  Cu8      1.0000 0.68508  0.28738  0.97519  Biso   1.000  Cu
