data_image0
_cell_length_a       11.308
_cell_length_b       26.7172
_cell_length_c       14.0045
_cell_angle_alpha    90
_cell_angle_beta     99.477
_cell_angle_gamma    90

_symmetry_space_group_name_H-M    "P 1"
_symmetry_int_tables_number       1

loop_
  _symmetry_equiv_pos_as_xyz
  'x, y, z'

loop_
  _atom_site_label
  _atom_site_occupancy
  _atom_site_fract_x
  _atom_site_fract_y
  _atom_site_fract_z
  _atom_site_thermal_displace_type
  _atom_site_B_iso_or_equiv
  _atom_site_type_symbol
  N1       1.0000 0.54634  0.31985  0.61741  Biso   1.000  N
  N2       1.0000 0.38595  0.26958  0.69162  Biso   1.000  N
  N3       1.0000 0.63007  0.37946  0.78649  Biso   1.000  N
  N4       1.0000 0.74125  0.44872  0.74845  Biso   1.000  N
  N5       1.0000 0.63726  0.39957  0.62371  Biso   1.000  N
  C1       1.0000 0.50899  0.27685  0.56821  Biso   1.000  C
  C2       1.0000 0.61786  0.35209  0.58022  Biso   1.000  C
  C3       1.0000 0.41571  0.24942  0.60929  Biso   1.000  C
  C4       1.0000 0.29359  0.24962  0.72839  Biso   1.000  C
  H1       1.0000 0.27150  0.26420  0.78320  Biso   1.000  H
  C5       1.0000 0.67002  0.40812  0.72342  Biso   1.000  C
  C6       1.0000 0.55010  0.26343  0.48420  Biso   1.000  C
  H2       1.0000 0.52460  0.23400  0.45170  Biso   1.000  H
  C7       1.0000 0.81050  0.47597  0.68566  Biso   1.000  C
  H3       1.0000 0.89490  0.47470  0.71350  Biso   1.000  H
  H4       1.0000 0.78600  0.51080  0.68230  Biso   1.000  H
  C8       1.0000 0.23030  0.20828  0.68782  Biso   1.000  C
  H5       1.0000 0.16690  0.19540  0.71480  Biso   1.000  H
  C9       1.0000 0.67990  0.38872  0.88840  Biso   1.000  C
  H6       1.0000 0.76120  0.37600  0.90240  Biso   1.000  H
  H7       1.0000 0.63230  0.37140  0.92970  Biso   1.000  H
  C10      1.0000 0.26340  0.18651  0.60617  Biso   1.000  C
  H8       1.0000 0.22420  0.15800  0.57900  Biso   1.000  H
  C11      1.0000 0.35560  0.20766  0.56551  Biso   1.000  C
  H9       1.0000 0.37710  0.19410  0.50960  Biso   1.000  H
  C12      1.0000 0.76040  0.46879  0.84735  Biso   1.000  C
  H10      1.0000 0.74560  0.50460  0.84490  Biso   1.000  H
  H11      1.0000 0.84330  0.46350  0.87680  Biso   1.000  H
  C13      1.0000 0.66100  0.44122  0.56014  Biso   1.000  C
  H12      1.0000 0.61250  0.47000  0.57050  Biso   1.000  H
  H13      1.0000 0.64110  0.43130  0.49280  Biso   1.000  H
  C14      1.0000 0.79330  0.45436  0.58444  Biso   1.000  C
  H14      1.0000 0.84250  0.42470  0.58250  Biso   1.000  H
  H15      1.0000 0.81490  0.47870  0.53890  Biso   1.000  H
  C15      1.0000 0.66400  0.33965  0.49661  Biso   1.000  C
  H16      1.0000 0.71680  0.36120  0.47280  Biso   1.000  H
  C16      1.0000 0.67950  0.44438  0.90881  Biso   1.000  C
  H17      1.0000 0.59880  0.45760  0.89270  Biso   1.000  H
  H18      1.0000 0.70860  0.45070  0.97680  Biso   1.000  H
  C17      1.0000 0.63070  0.29515  0.44975  Biso   1.000  C
  H19      1.0000 0.66240  0.28640  0.39490  Biso   1.000  H
  N6       1.0000 0.45366  0.31985  0.88259  Biso   1.000  N
  N7       1.0000 0.61405  0.26958  0.80838  Biso   1.000  N
  N8       1.0000 0.36993  0.37946  0.71351  Biso   1.000  N
  N9       1.0000 0.25875  0.44872  0.75155  Biso   1.000  N
  N10      1.0000 0.36274  0.39957  0.87629  Biso   1.000  N
  C18      1.0000 0.49101  0.27685  0.93179  Biso   1.000  C
  C19      1.0000 0.38214  0.35209  0.91978  Biso   1.000  C
  C20      1.0000 0.58429  0.24942  0.89071  Biso   1.000  C
  C21      1.0000 0.70641  0.24962  0.77161  Biso   1.000  C
  H20      1.0000 0.72850  0.26420  0.71680  Biso   1.000  H
  C22      1.0000 0.32998  0.40812  0.77658  Biso   1.000  C
  C23      1.0000 0.44990  0.26343  0.01580  Biso   1.000  C
  H21      1.0000 0.47540  0.23400  0.04830  Biso   1.000  H
  C24      1.0000 0.18950  0.47597  0.81434  Biso   1.000  C
  H22      1.0000 0.10510  0.47470  0.78650  Biso   1.000  H
  H23      1.0000 0.21400  0.51080  0.81770  Biso   1.000  H
  C25      1.0000 0.76970  0.20828  0.81218  Biso   1.000  C
  H24      1.0000 0.83310  0.19540  0.78520  Biso   1.000  H
  C26      1.0000 0.32010  0.38872  0.61160  Biso   1.000  C
  H25      1.0000 0.23880  0.37600  0.59760  Biso   1.000  H
  H26      1.0000 0.36770  0.37140  0.57030  Biso   1.000  H
  C27      1.0000 0.73660  0.18651  0.89383  Biso   1.000  C
  H27      1.0000 0.77580  0.15800  0.92100  Biso   1.000  H
  C28      1.0000 0.64440  0.20766  0.93449  Biso   1.000  C
  H28      1.0000 0.62290  0.19410  0.99040  Biso   1.000  H
  C29      1.0000 0.23960  0.46879  0.65265  Biso   1.000  C
  H29      1.0000 0.25440  0.50460  0.65510  Biso   1.000  H
  H30      1.0000 0.15670  0.46350  0.62320  Biso   1.000  H
  C30      1.0000 0.33900  0.44122  0.93986  Biso   1.000  C
  H31      1.0000 0.38750  0.47000  0.92950  Biso   1.000  H
  H32      1.0000 0.35890  0.43130  0.00720  Biso   1.000  H
  C31      1.0000 0.20670  0.45436  0.91556  Biso   1.000  C
  H33      1.0000 0.15750  0.42470  0.91750  Biso   1.000  H
  H34      1.0000 0.18510  0.47870  0.96110  Biso   1.000  H
  C32      1.0000 0.33600  0.33965  0.00339  Biso   1.000  C
  H35      1.0000 0.28320  0.36120  0.02720  Biso   1.000  H
  C33      1.0000 0.32050  0.44438  0.59119  Biso   1.000  C
  H36      1.0000 0.40120  0.45760  0.60730  Biso   1.000  H
  H37      1.0000 0.29140  0.45070  0.52320  Biso   1.000  H
  C34      1.0000 0.36930  0.29515  0.05025  Biso   1.000  C
  H38      1.0000 0.33760  0.28640  0.10510  Biso   1.000  H
  Ru1      1.0000 0.50000  0.32554  0.75000  Biso   1.000  Ru
  N11      1.0000 0.04634  0.81985  0.61741  Biso   1.000  N
  N12      1.0000 0.88595  0.76958  0.69162  Biso   1.000  N
  N13      1.0000 0.13007  0.87946  0.78649  Biso   1.000  N
  N14      1.0000 0.24125  0.94872  0.74845  Biso   1.000  N
  N15      1.0000 0.13726  0.89957  0.62371  Biso   1.000  N
  C35      1.0000 0.00899  0.77685  0.56821  Biso   1.000  C
  C36      1.0000 0.11786  0.85209  0.58022  Biso   1.000  C
  C37      1.0000 0.91571  0.74942  0.60929  Biso   1.000  C
  C38      1.0000 0.79359  0.74962  0.72839  Biso   1.000  C
  H39      1.0000 0.77150  0.76420  0.78320  Biso   1.000  H
  C39      1.0000 0.17002  0.90812  0.72342  Biso   1.000  C
  C40      1.0000 0.05010  0.76343  0.48420  Biso   1.000  C
  H40      1.0000 0.02460  0.73400  0.45170  Biso   1.000  H
  C41      1.0000 0.31050  0.97597  0.68566  Biso   1.000  C
  H41      1.0000 0.39490  0.97470  0.71350  Biso   1.000  H
  H42      1.0000 0.28600  0.01080  0.68230  Biso   1.000  H
  C42      1.0000 0.73030  0.70828  0.68782  Biso   1.000  C
  H43      1.0000 0.66690  0.69540  0.71480  Biso   1.000  H
  C43      1.0000 0.17990  0.88872  0.88840  Biso   1.000  C
  H44      1.0000 0.26120  0.87600  0.90240  Biso   1.000  H
  H45      1.0000 0.13230  0.87140  0.92970  Biso   1.000  H
  C44      1.0000 0.76340  0.68651  0.60617  Biso   1.000  C
  H46      1.0000 0.72420  0.65800  0.57900  Biso   1.000  H
  C45      1.0000 0.85560  0.70766  0.56551  Biso   1.000  C
  H47      1.0000 0.87710  0.69410  0.50960  Biso   1.000  H
  C46      1.0000 0.26040  0.96879  0.84735  Biso   1.000  C
  H48      1.0000 0.24560  0.00460  0.84490  Biso   1.000  H
  H49      1.0000 0.34330  0.96350  0.87680  Biso   1.000  H
  C47      1.0000 0.16100  0.94122  0.56014  Biso   1.000  C
  H50      1.0000 0.11250  0.97000  0.57050  Biso   1.000  H
  H51      1.0000 0.14110  0.93130  0.49280  Biso   1.000  H
  C48      1.0000 0.29330  0.95436  0.58444  Biso   1.000  C
  H52      1.0000 0.34250  0.92470  0.58250  Biso   1.000  H
  H53      1.0000 0.31490  0.97870  0.53890  Biso   1.000  H
  C49      1.0000 0.16400  0.83965  0.49661  Biso   1.000  C
  H54      1.0000 0.21680  0.86120  0.47280  Biso   1.000  H
  C50      1.0000 0.17950  0.94438  0.90881  Biso   1.000  C
  H55      1.0000 0.09880  0.95760  0.89270  Biso   1.000  H
  H56      1.0000 0.20860  0.95070  0.97680  Biso   1.000  H
  C51      1.0000 0.13070  0.79515  0.44975  Biso   1.000  C
  H57      1.0000 0.16240  0.78640  0.39490  Biso   1.000  H
  N16      1.0000 0.95366  0.81985  0.88259  Biso   1.000  N
  N17      1.0000 0.11405  0.76958  0.80838  Biso   1.000  N
  N18      1.0000 0.86993  0.87946  0.71351  Biso   1.000  N
  N19      1.0000 0.75875  0.94872  0.75155  Biso   1.000  N
  N20      1.0000 0.86274  0.89957  0.87629  Biso   1.000  N
  C52      1.0000 0.99101  0.77685  0.93179  Biso   1.000  C
  C53      1.0000 0.88214  0.85209  0.91978  Biso   1.000  C
  C54      1.0000 0.08429  0.74942  0.89071  Biso   1.000  C
  C55      1.0000 0.20641  0.74962  0.77161  Biso   1.000  C
  H58      1.0000 0.22850  0.76420  0.71680  Biso   1.000  H
  C56      1.0000 0.82998  0.90812  0.77658  Biso   1.000  C
  C57      1.0000 0.94990  0.76343  0.01580  Biso   1.000  C
  H59      1.0000 0.97540  0.73400  0.04830  Biso   1.000  H
  C58      1.0000 0.68950  0.97597  0.81434  Biso   1.000  C
  H60      1.0000 0.60510  0.97470  0.78650  Biso   1.000  H
  H61      1.0000 0.71400  0.01080  0.81770  Biso   1.000  H
  C59      1.0000 0.26970  0.70828  0.81218  Biso   1.000  C
  H62      1.0000 0.33310  0.69540  0.78520  Biso   1.000  H
  C60      1.0000 0.82010  0.88872  0.61160  Biso   1.000  C
  H63      1.0000 0.73880  0.87600  0.59760  Biso   1.000  H
  H64      1.0000 0.86770  0.87140  0.57030  Biso   1.000  H
  C61      1.0000 0.23660  0.68651  0.89383  Biso   1.000  C
  H65      1.0000 0.27580  0.65800  0.92100  Biso   1.000  H
  C62      1.0000 0.14440  0.70766  0.93449  Biso   1.000  C
  H66      1.0000 0.12290  0.69410  0.99040  Biso   1.000  H
  C63      1.0000 0.73960  0.96879  0.65265  Biso   1.000  C
  H67      1.0000 0.75440  0.00460  0.65510  Biso   1.000  H
  H68      1.0000 0.65670  0.96350  0.62320  Biso   1.000  H
  C64      1.0000 0.83900  0.94122  0.93986  Biso   1.000  C
  H69      1.0000 0.88750  0.97000  0.92950  Biso   1.000  H
  H70      1.0000 0.85890  0.93130  0.00720  Biso   1.000  H
  C65      1.0000 0.70670  0.95436  0.91556  Biso   1.000  C
  H71      1.0000 0.65750  0.92470  0.91750  Biso   1.000  H
  H72      1.0000 0.68510  0.97870  0.96110  Biso   1.000  H
  C66      1.0000 0.83600  0.83965  0.00339  Biso   1.000  C
  H73      1.0000 0.78320  0.86120  0.02720  Biso   1.000  H
  C67      1.0000 0.82050  0.94438  0.59119  Biso   1.000  C
  H74      1.0000 0.90120  0.95760  0.60730  Biso   1.000  H
  H75      1.0000 0.79140  0.95070  0.52320  Biso   1.000  H
  C68      1.0000 0.86930  0.79515  0.05025  Biso   1.000  C
  H76      1.0000 0.83760  0.78640  0.10510  Biso   1.000  H
  Ru2      1.0000 0.00000  0.82554  0.75000  Biso   1.000  Ru
  N21      1.0000 0.45366  0.68015  0.38259  Biso   1.000  N
  N22      1.0000 0.61405  0.73042  0.30838  Biso   1.000  N
  N23      1.0000 0.36993  0.62054  0.21351  Biso   1.000  N
  N24      1.0000 0.25875  0.55128  0.25155  Biso   1.000  N
  N25      1.0000 0.36274  0.60043  0.37629  Biso   1.000  N
  C69      1.0000 0.49101  0.72315  0.43179  Biso   1.000  C
  C70      1.0000 0.38214  0.64791  0.41978  Biso   1.000  C
  C71      1.0000 0.58429  0.75058  0.39071  Biso   1.000  C
  C72      1.0000 0.70641  0.75038  0.27161  Biso   1.000  C
  H77      1.0000 0.72850  0.73580  0.21680  Biso   1.000  H
  C73      1.0000 0.32998  0.59188  0.27658  Biso   1.000  C
  C74      1.0000 0.44990  0.73657  0.51580  Biso   1.000  C
  H78      1.0000 0.47540  0.76600  0.54830  Biso   1.000  H
  C75      1.0000 0.18950  0.52403  0.31434  Biso   1.000  C
  H79      1.0000 0.10510  0.52530  0.28650  Biso   1.000  H
  H80      1.0000 0.21400  0.48920  0.31770  Biso   1.000  H
  C76      1.0000 0.76970  0.79172  0.31218  Biso   1.000  C
  H81      1.0000 0.83310  0.80460  0.28520  Biso   1.000  H
  C77      1.0000 0.32010  0.61128  0.11160  Biso   1.000  C
  H82      1.0000 0.23880  0.62400  0.09760  Biso   1.000  H
  H83      1.0000 0.36770  0.62860  0.07030  Biso   1.000  H
  C78      1.0000 0.73660  0.81349  0.39383  Biso   1.000  C
  H84      1.0000 0.77580  0.84200  0.42100  Biso   1.000  H
  C79      1.0000 0.64440  0.79234  0.43449  Biso   1.000  C
  H85      1.0000 0.62290  0.80590  0.49040  Biso   1.000  H
  C80      1.0000 0.23960  0.53121  0.15265  Biso   1.000  C
  H86      1.0000 0.25440  0.49540  0.15510  Biso   1.000  H
  H87      1.0000 0.15670  0.53650  0.12320  Biso   1.000  H
  C81      1.0000 0.33900  0.55878  0.43986  Biso   1.000  C
  H88      1.0000 0.38750  0.53000  0.42950  Biso   1.000  H
  H89      1.0000 0.35890  0.56870  0.50720  Biso   1.000  H
  C82      1.0000 0.20670  0.54564  0.41556  Biso   1.000  C
  H90      1.0000 0.15750  0.57530  0.41750  Biso   1.000  H
  H91      1.0000 0.18510  0.52130  0.46110  Biso   1.000  H
  C83      1.0000 0.33600  0.66035  0.50339  Biso   1.000  C
  H92      1.0000 0.28320  0.63880  0.52720  Biso   1.000  H
  C84      1.0000 0.32050  0.55562  0.09119  Biso   1.000  C
  H93      1.0000 0.40120  0.54240  0.10730  Biso   1.000  H
  H94      1.0000 0.29140  0.54930  0.02320  Biso   1.000  H
  C85      1.0000 0.36930  0.70485  0.55025  Biso   1.000  C
  H95      1.0000 0.33760  0.71360  0.60510  Biso   1.000  H
  N26      1.0000 0.54634  0.68015  0.11741  Biso   1.000  N
  N27      1.0000 0.38595  0.73042  0.19162  Biso   1.000  N
  N28      1.0000 0.63007  0.62054  0.28649  Biso   1.000  N
  N29      1.0000 0.74125  0.55128  0.24845  Biso   1.000  N
  N30      1.0000 0.63726  0.60043  0.12371  Biso   1.000  N
  C86      1.0000 0.50899  0.72315  0.06821  Biso   1.000  C
  C87      1.0000 0.61786  0.64791  0.08022  Biso   1.000  C
  C88      1.0000 0.41571  0.75058  0.10929  Biso   1.000  C
  C89      1.0000 0.29359  0.75038  0.22839  Biso   1.000  C
  H96      1.0000 0.27150  0.73580  0.28320  Biso   1.000  H
  C90      1.0000 0.67002  0.59188  0.22342  Biso   1.000  C
  C91      1.0000 0.55010  0.73657  0.98420  Biso   1.000  C
  H97      1.0000 0.52460  0.76600  0.95170  Biso   1.000  H
  C92      1.0000 0.81050  0.52403  0.18566  Biso   1.000  C
  H98      1.0000 0.89490  0.52530  0.21350  Biso   1.000  H
  H99      1.0000 0.78600  0.48920  0.18230  Biso   1.000  H
  C93      1.0000 0.23030  0.79172  0.18782  Biso   1.000  C
  H100     1.0000 0.16690  0.80460  0.21480  Biso   1.000  H
  C94      1.0000 0.67990  0.61128  0.38840  Biso   1.000  C
  H101     1.0000 0.76120  0.62400  0.40240  Biso   1.000  H
  H102     1.0000 0.63230  0.62860  0.42970  Biso   1.000  H
  C95      1.0000 0.26340  0.81349  0.10617  Biso   1.000  C
  H103     1.0000 0.22420  0.84200  0.07900  Biso   1.000  H
  C96      1.0000 0.35560  0.79234  0.06551  Biso   1.000  C
  H104     1.0000 0.37710  0.80590  0.00960  Biso   1.000  H
  C97      1.0000 0.76040  0.53121  0.34735  Biso   1.000  C
  H105     1.0000 0.74560  0.49540  0.34490  Biso   1.000  H
  H106     1.0000 0.84330  0.53650  0.37680  Biso   1.000  H
  C98      1.0000 0.66100  0.55878  0.06014  Biso   1.000  C
  H107     1.0000 0.61250  0.53000  0.07050  Biso   1.000  H
  H108     1.0000 0.64110  0.56870  0.99280  Biso   1.000  H
  C99      1.0000 0.79330  0.54564  0.08444  Biso   1.000  C
  H109     1.0000 0.84250  0.57530  0.08250  Biso   1.000  H
  H110     1.0000 0.81490  0.52130  0.03890  Biso   1.000  H
  C100     1.0000 0.66400  0.66035  0.99661  Biso   1.000  C
  H111     1.0000 0.71680  0.63880  0.97280  Biso   1.000  H
  C101     1.0000 0.67950  0.55562  0.40881  Biso   1.000  C
  H112     1.0000 0.59880  0.54240  0.39270  Biso   1.000  H
  H113     1.0000 0.70860  0.54930  0.47680  Biso   1.000  H
  C102     1.0000 0.63070  0.70485  0.94975  Biso   1.000  C
  H114     1.0000 0.66240  0.71360  0.89490  Biso   1.000  H
  Ru3      1.0000 0.50000  0.67446  0.25000  Biso   1.000  Ru
  N31      1.0000 0.95366  0.18015  0.38259  Biso   1.000  N
  N32      1.0000 0.11405  0.23042  0.30838  Biso   1.000  N
  N33      1.0000 0.86993  0.12054  0.21351  Biso   1.000  N
  N34      1.0000 0.75875  0.05128  0.25155  Biso   1.000  N
  N35      1.0000 0.86274  0.10043  0.37629  Biso   1.000  N
  C103     1.0000 0.99101  0.22315  0.43179  Biso   1.000  C
  C104     1.0000 0.88214  0.14791  0.41978  Biso   1.000  C
  C105     1.0000 0.08429  0.25058  0.39071  Biso   1.000  C
  C106     1.0000 0.20641  0.25038  0.27161  Biso   1.000  C
  H115     1.0000 0.22850  0.23580  0.21680  Biso   1.000  H
  C107     1.0000 0.82998  0.09188  0.27658  Biso   1.000  C
  C108     1.0000 0.94990  0.23657  0.51580  Biso   1.000  C
  H116     1.0000 0.97540  0.26600  0.54830  Biso   1.000  H
  C109     1.0000 0.68950  0.02403  0.31434  Biso   1.000  C
  H117     1.0000 0.60510  0.02530  0.28650  Biso   1.000  H
  H118     1.0000 0.71400  0.98920  0.31770  Biso   1.000  H
  C110     1.0000 0.26970  0.29172  0.31218  Biso   1.000  C
  H119     1.0000 0.33310  0.30460  0.28520  Biso   1.000  H
  C111     1.0000 0.82010  0.11128  0.11160  Biso   1.000  C
  H120     1.0000 0.73880  0.12400  0.09760  Biso   1.000  H
  H121     1.0000 0.86770  0.12860  0.07030  Biso   1.000  H
  C112     1.0000 0.23660  0.31349  0.39383  Biso   1.000  C
  H122     1.0000 0.27580  0.34200  0.42100  Biso   1.000  H
  C113     1.0000 0.14440  0.29234  0.43449  Biso   1.000  C
  H123     1.0000 0.12290  0.30590  0.49040  Biso   1.000  H
  C114     1.0000 0.73960  0.03121  0.15265  Biso   1.000  C
  H124     1.0000 0.75440  0.99540  0.15510  Biso   1.000  H
  H125     1.0000 0.65670  0.03650  0.12320  Biso   1.000  H
  C115     1.0000 0.83900  0.05878  0.43986  Biso   1.000  C
  H126     1.0000 0.88750  0.03000  0.42950  Biso   1.000  H
  H127     1.0000 0.85890  0.06870  0.50720  Biso   1.000  H
  C116     1.0000 0.70670  0.04564  0.41556  Biso   1.000  C
  H128     1.0000 0.65750  0.07530  0.41750  Biso   1.000  H
  H129     1.0000 0.68510  0.02130  0.46110  Biso   1.000  H
  C117     1.0000 0.83600  0.16035  0.50339  Biso   1.000  C
  H130     1.0000 0.78320  0.13880  0.52720  Biso   1.000  H
  C118     1.0000 0.82050  0.05562  0.09119  Biso   1.000  C
  H131     1.0000 0.90120  0.04240  0.10730  Biso   1.000  H
  H132     1.0000 0.79140  0.04930  0.02320  Biso   1.000  H
  C119     1.0000 0.86930  0.20485  0.55025  Biso   1.000  C
  H133     1.0000 0.83760  0.21360  0.60510  Biso   1.000  H
  N36      1.0000 0.04634  0.18015  0.11741  Biso   1.000  N
  N37      1.0000 0.88595  0.23042  0.19162  Biso   1.000  N
  N38      1.0000 0.13007  0.12054  0.28649  Biso   1.000  N
  N39      1.0000 0.24125  0.05128  0.24845  Biso   1.000  N
  N40      1.0000 0.13726  0.10043  0.12371  Biso   1.000  N
  C120     1.0000 0.00899  0.22315  0.06821  Biso   1.000  C
  C121     1.0000 0.11786  0.14791  0.08022  Biso   1.000  C
  C122     1.0000 0.91571  0.25058  0.10929  Biso   1.000  C
  C123     1.0000 0.79359  0.25038  0.22839  Biso   1.000  C
  H134     1.0000 0.77150  0.23580  0.28320  Biso   1.000  H
  C124     1.0000 0.17002  0.09188  0.22342  Biso   1.000  C
  C125     1.0000 0.05010  0.23657  0.98420  Biso   1.000  C
  H135     1.0000 0.02460  0.26600  0.95170  Biso   1.000  H
  C126     1.0000 0.31050  0.02403  0.18566  Biso   1.000  C
  H136     1.0000 0.39490  0.02530  0.21350  Biso   1.000  H
  H137     1.0000 0.28600  0.98920  0.18230  Biso   1.000  H
  C127     1.0000 0.73030  0.29172  0.18782  Biso   1.000  C
  H138     1.0000 0.66690  0.30460  0.21480  Biso   1.000  H
  C128     1.0000 0.17990  0.11128  0.38840  Biso   1.000  C
  H139     1.0000 0.26120  0.12400  0.40240  Biso   1.000  H
  H140     1.0000 0.13230  0.12860  0.42970  Biso   1.000  H
  C129     1.0000 0.76340  0.31349  0.10617  Biso   1.000  C
  H141     1.0000 0.72420  0.34200  0.07900  Biso   1.000  H
  C130     1.0000 0.85560  0.29234  0.06551  Biso   1.000  C
  H142     1.0000 0.87710  0.30590  0.00960  Biso   1.000  H
  C131     1.0000 0.26040  0.03121  0.34735  Biso   1.000  C
  H143     1.0000 0.24560  0.99540  0.34490  Biso   1.000  H
  H144     1.0000 0.34330  0.03650  0.37680  Biso   1.000  H
  C132     1.0000 0.16100  0.05878  0.06014  Biso   1.000  C
  H145     1.0000 0.11250  0.03000  0.07050  Biso   1.000  H
  H146     1.0000 0.14110  0.06870  0.99280  Biso   1.000  H
  C133     1.0000 0.29330  0.04564  0.08444  Biso   1.000  C
  H147     1.0000 0.34250  0.07530  0.08250  Biso   1.000  H
  H148     1.0000 0.31490  0.02130  0.03890  Biso   1.000  H
  C134     1.0000 0.16400  0.16035  0.99661  Biso   1.000  C
  H149     1.0000 0.21680  0.13880  0.97280  Biso   1.000  H
  C135     1.0000 0.17950  0.05562  0.40881  Biso   1.000  C
  H150     1.0000 0.09880  0.04240  0.39270  Biso   1.000  H
  H151     1.0000 0.20860  0.04930  0.47680  Biso   1.000  H
  C136     1.0000 0.13070  0.20485  0.94975  Biso   1.000  C
  H152     1.0000 0.16240  0.21360  0.89490  Biso   1.000  H
  Ru4      1.0000 0.00000  0.17446  0.25000  Biso   1.000  Ru
