data_image0
_cell_length_a       11.0265
_cell_length_b       13.461
_cell_length_c       25.8071
_cell_angle_alpha    90
_cell_angle_beta     98.093
_cell_angle_gamma    90

_symmetry_space_group_name_H-M    "P 1"
_symmetry_int_tables_number       1

loop_
  _symmetry_equiv_pos_as_xyz
  'x, y, z'

loop_
  _atom_site_label
  _atom_site_occupancy
  _atom_site_fract_x
  _atom_site_fract_y
  _atom_site_fract_z
  _atom_site_thermal_displace_type
  _atom_site_B_iso_or_equiv
  _atom_site_type_symbol
  C1       1.0000 0.76730  0.18190  0.58506  Biso   1.000  C
  C2       1.0000 0.81090  0.26020  0.62478  Biso   1.000  C
  C3       1.0000 0.72990  0.33700  0.63219  Biso   1.000  C
  H1       1.0000 0.65300  0.33950  0.61210  Biso   1.000  H
  C4       1.0000 0.76360  0.40830  0.66897  Biso   1.000  C
  H2       1.0000 0.70940  0.45930  0.67380  Biso   1.000  H
  C5       1.0000 0.88000  0.40540  0.69984  Biso   1.000  C
  C6       1.0000 0.95910  0.32870  0.69222  Biso   1.000  C
  H3       1.0000 0.03550  0.32540  0.71270  Biso   1.000  H
  C7       1.0000 0.92560  0.25610  0.65410  Biso   1.000  C
  H4       1.0000 0.98000  0.20570  0.64860  Biso   1.000  H
  C8       1.0000 0.92120  0.48620  0.74068  Biso   1.000  C
  H5       1.0000 0.01090  0.48390  0.74760  Biso   1.000  H
  C9       1.0000 0.87300  0.03210  0.29358  Biso   1.000  C
  C10      1.0000 0.76040  0.07440  0.29811  Biso   1.000  C
  H6       1.0000 0.71210  0.09910  0.26840  Biso   1.000  H
  C11      1.0000 0.71830  0.08060  0.34651  Biso   1.000  C
  H7       1.0000 0.64140  0.10700  0.34890  Biso   1.000  H
  C12      1.0000 0.79250  0.04700  0.39127  Biso   1.000  C
  C13      1.0000 0.90530  0.00440  0.38645  Biso   1.000  C
  H8       1.0000 0.95440  0.98030  0.41600  Biso   1.000  H
  C14      1.0000 0.94580  0.99770  0.33766  Biso   1.000  C
  H9       1.0000 0.02180  0.96990  0.33500  Biso   1.000  H
  C15      1.0000 0.74830  0.04740  0.44286  Biso   1.000  C
  C16      1.0000 0.88540  0.58800  0.71691  Biso   1.000  C
  C17      1.0000 0.78430  0.64110  0.72754  Biso   1.000  C
  H10      1.0000 0.73920  0.61900  0.75320  Biso   1.000  H
  C18      1.0000 0.74990  0.72810  0.69969  Biso   1.000  C
  H11      1.0000 0.68040  0.76270  0.70590  Biso   1.000  H
  C19      1.0000 0.81990  0.76290  0.66262  Biso   1.000  C
  C20      1.0000 0.92340  0.70990  0.65275  Biso   1.000  C
  H12      1.0000 0.96920  0.73270  0.62750  Biso   1.000  H
  C21      1.0000 0.95790  0.62400  0.68022  Biso   1.000  C
  H13      1.0000 0.02850  0.59030  0.67450  Biso   1.000  H
  C22      1.0000 0.77680  0.85070  0.62934  Biso   1.000  C
  C23      1.0000 0.49140  0.28850  0.42742  Biso   1.000  C
  H14      1.0000 0.53810  0.25250  0.40670  Biso   1.000  H
  C24      1.0000 0.44390  0.38110  0.41089  Biso   1.000  C
  H15      1.0000 0.45900  0.40640  0.37890  Biso   1.000  H
  C25      1.0000 0.37480  0.43580  0.44137  Biso   1.000  C
  H16      1.0000 0.34110  0.49640  0.42950  Biso   1.000  H
  C26      1.0000 0.35650  0.39910  0.48974  Biso   1.000  C
  H17      1.0000 0.31360  0.43670  0.51130  Biso   1.000  H
  C27      1.0000 0.40210  0.30560  0.50636  Biso   1.000  C
  C28      1.0000 0.39070  0.26500  0.55661  Biso   1.000  C
  C29      1.0000 0.33800  0.31470  0.59390  Biso   1.000  C
  H18      1.0000 0.30650  0.37820  0.58700  Biso   1.000  H
  C30      1.0000 0.33160  0.26990  0.64285  Biso   1.000  C
  H19      1.0000 0.29760  0.30430  0.66850  Biso   1.000  H
  C31      1.0000 0.37640  0.17410  0.65254  Biso   1.000  C
  H20      1.0000 0.37150  0.14360  0.68450  Biso   1.000  H
  C32      1.0000 0.42810  0.12500  0.61435  Biso   1.000  C
  H21      1.0000 0.45890  0.06130  0.62100  Biso   1.000  H
  N1       1.0000 0.46860  0.25080  0.47453  Biso   1.000  N
  N2       1.0000 0.43540  0.16830  0.56622  Biso   1.000  N
  O1       1.0000 0.67840  0.19560  0.55236  Biso   1.000  O
  O2       1.0000 0.83050  0.09915  0.58933  Biso   1.000  O
  O3       1.0000 0.65100  0.09450  0.44727  Biso   1.000  O
  O4       1.0000 0.81120  0.99806  0.47928  Biso   1.000  O
  O5       1.0000 0.68900  0.90023  0.63977  Biso   1.000  O
  O6       1.0000 0.82770  0.86577  0.58847  Biso   1.000  O
  O7       1.0000 0.58840  0.97719  0.54068  Biso   1.000  O
  H22      1.0000 0.56770  0.97700  0.57120  Biso   1.000  H
  Zn1      1.0000 0.76795  0.98230  0.54893  Biso   1.000  Zn
  Zn2      1.0000 0.53743  0.11372  0.50700  Biso   1.000  Zn
  C33      1.0000 0.23270  0.68190  0.91494  Biso   1.000  C
  C34      1.0000 0.18910  0.76020  0.87522  Biso   1.000  C
  C35      1.0000 0.27010  0.83700  0.86781  Biso   1.000  C
  H23      1.0000 0.34700  0.83950  0.88790  Biso   1.000  H
  C36      1.0000 0.23640  0.90830  0.83103  Biso   1.000  C
  H24      1.0000 0.29060  0.95930  0.82620  Biso   1.000  H
  C37      1.0000 0.12000  0.90540  0.80016  Biso   1.000  C
  C38      1.0000 0.04090  0.82870  0.80778  Biso   1.000  C
  H25      1.0000 0.96450  0.82540  0.78730  Biso   1.000  H
  C39      1.0000 0.07440  0.75610  0.84590  Biso   1.000  C
  H26      1.0000 0.02000  0.70570  0.85140  Biso   1.000  H
  C40      1.0000 0.07880  0.98620  0.75932  Biso   1.000  C
  H27      1.0000 0.98910  0.98390  0.75240  Biso   1.000  H
  C41      1.0000 0.12700  0.53210  0.20642  Biso   1.000  C
  C42      1.0000 0.23960  0.57440  0.20189  Biso   1.000  C
  H28      1.0000 0.28790  0.59910  0.23160  Biso   1.000  H
  C43      1.0000 0.28170  0.58060  0.15349  Biso   1.000  C
  H29      1.0000 0.35860  0.60700  0.15110  Biso   1.000  H
  C44      1.0000 0.20750  0.54700  0.10873  Biso   1.000  C
  C45      1.0000 0.09470  0.50440  0.11355  Biso   1.000  C
  H30      1.0000 0.04560  0.48030  0.08400  Biso   1.000  H
  C46      1.0000 0.05420  0.49770  0.16234  Biso   1.000  C
  H31      1.0000 0.97820  0.46990  0.16500  Biso   1.000  H
  C47      1.0000 0.25170  0.54740  0.05714  Biso   1.000  C
  C48      1.0000 0.11460  0.08800  0.78309  Biso   1.000  C
  C49      1.0000 0.21570  0.14110  0.77246  Biso   1.000  C
  H32      1.0000 0.26080  0.11900  0.74680  Biso   1.000  H
  C50      1.0000 0.25010  0.22810  0.80031  Biso   1.000  C
  H33      1.0000 0.31960  0.26270  0.79410  Biso   1.000  H
  C51      1.0000 0.18010  0.26290  0.83738  Biso   1.000  C
  C52      1.0000 0.07660  0.20990  0.84725  Biso   1.000  C
  H34      1.0000 0.03080  0.23270  0.87250  Biso   1.000  H
  C53      1.0000 0.04210  0.12400  0.81978  Biso   1.000  C
  H35      1.0000 0.97150  0.09030  0.82550  Biso   1.000  H
  C54      1.0000 0.22320  0.35070  0.87066  Biso   1.000  C
  C55      1.0000 0.50860  0.78850  0.07258  Biso   1.000  C
  H36      1.0000 0.46190  0.75250  0.09330  Biso   1.000  H
  C56      1.0000 0.55610  0.88110  0.08911  Biso   1.000  C
  H37      1.0000 0.54100  0.90640  0.12110  Biso   1.000  H
  C57      1.0000 0.62520  0.93580  0.05863  Biso   1.000  C
  H38      1.0000 0.65890  0.99640  0.07050  Biso   1.000  H
  C58      1.0000 0.64350  0.89910  0.01026  Biso   1.000  C
  H39      1.0000 0.68640  0.93670  0.98870  Biso   1.000  H
  C59      1.0000 0.59790  0.80560  0.99364  Biso   1.000  C
  C60      1.0000 0.60930  0.76500  0.94339  Biso   1.000  C
  C61      1.0000 0.66200  0.81470  0.90610  Biso   1.000  C
  H40      1.0000 0.69350  0.87820  0.91300  Biso   1.000  H
  C62      1.0000 0.66840  0.76990  0.85715  Biso   1.000  C
  H41      1.0000 0.70240  0.80430  0.83150  Biso   1.000  H
  C63      1.0000 0.62360  0.67410  0.84746  Biso   1.000  C
  H42      1.0000 0.62850  0.64360  0.81550  Biso   1.000  H
  C64      1.0000 0.57190  0.62500  0.88565  Biso   1.000  C
  H43      1.0000 0.54110  0.56130  0.87900  Biso   1.000  H
  N3       1.0000 0.53140  0.75080  0.02547  Biso   1.000  N
  N4       1.0000 0.56460  0.66830  0.93378  Biso   1.000  N
  O8       1.0000 0.32160  0.69560  0.94764  Biso   1.000  O
  O9       1.0000 0.16950  0.59915  0.91067  Biso   1.000  O
  O10      1.0000 0.34900  0.59450  0.05273  Biso   1.000  O
  O11      1.0000 0.18880  0.49806  0.02072  Biso   1.000  O
  O12      1.0000 0.31100  0.40023  0.86023  Biso   1.000  O
  O13      1.0000 0.17230  0.36577  0.91153  Biso   1.000  O
  O14      1.0000 0.41160  0.47719  0.95932  Biso   1.000  O
  H44      1.0000 0.43230  0.47700  0.92880  Biso   1.000  H
  Zn3      1.0000 0.23205  0.48230  0.95107  Biso   1.000  Zn
  Zn4      1.0000 0.46257  0.61372  0.99300  Biso   1.000  Zn
  C65      1.0000 0.23270  0.81810  0.41494  Biso   1.000  C
  C66      1.0000 0.18910  0.73980  0.37522  Biso   1.000  C
  C67      1.0000 0.27010  0.66300  0.36781  Biso   1.000  C
  H45      1.0000 0.34700  0.66050  0.38790  Biso   1.000  H
  C68      1.0000 0.23640  0.59170  0.33103  Biso   1.000  C
  H46      1.0000 0.29060  0.54070  0.32620  Biso   1.000  H
  C69      1.0000 0.12000  0.59460  0.30016  Biso   1.000  C
  C70      1.0000 0.04090  0.67130  0.30778  Biso   1.000  C
  H47      1.0000 0.96450  0.67460  0.28730  Biso   1.000  H
  C71      1.0000 0.07440  0.74390  0.34590  Biso   1.000  C
  H48      1.0000 0.02000  0.79430  0.35140  Biso   1.000  H
  C72      1.0000 0.07880  0.51380  0.25932  Biso   1.000  C
  H49      1.0000 0.98910  0.51610  0.25240  Biso   1.000  H
  C73      1.0000 0.12700  0.96790  0.70642  Biso   1.000  C
  C74      1.0000 0.23960  0.92560  0.70189  Biso   1.000  C
  H50      1.0000 0.28790  0.90090  0.73160  Biso   1.000  H
  C75      1.0000 0.28170  0.91940  0.65349  Biso   1.000  C
  H51      1.0000 0.35860  0.89300  0.65110  Biso   1.000  H
  C76      1.0000 0.20750  0.95300  0.60873  Biso   1.000  C
  C77      1.0000 0.09470  0.99560  0.61355  Biso   1.000  C
  H52      1.0000 0.04560  0.01970  0.58400  Biso   1.000  H
  C78      1.0000 0.05420  0.00230  0.66234  Biso   1.000  C
  H53      1.0000 0.97820  0.03010  0.66500  Biso   1.000  H
  C79      1.0000 0.25170  0.95260  0.55714  Biso   1.000  C
  C80      1.0000 0.11460  0.41200  0.28309  Biso   1.000  C
  C81      1.0000 0.21570  0.35890  0.27246  Biso   1.000  C
  H54      1.0000 0.26080  0.38100  0.24680  Biso   1.000  H
  C82      1.0000 0.25010  0.27190  0.30031  Biso   1.000  C
  H55      1.0000 0.31960  0.23730  0.29410  Biso   1.000  H
  C83      1.0000 0.18010  0.23710  0.33738  Biso   1.000  C
  C84      1.0000 0.07660  0.29010  0.34725  Biso   1.000  C
  H56      1.0000 0.03080  0.26730  0.37250  Biso   1.000  H
  C85      1.0000 0.04210  0.37600  0.31978  Biso   1.000  C
  H57      1.0000 0.97150  0.40970  0.32550  Biso   1.000  H
  C86      1.0000 0.22320  0.14930  0.37066  Biso   1.000  C
  C87      1.0000 0.50860  0.71150  0.57258  Biso   1.000  C
  H58      1.0000 0.46190  0.74750  0.59330  Biso   1.000  H
  C88      1.0000 0.55610  0.61890  0.58911  Biso   1.000  C
  H59      1.0000 0.54100  0.59360  0.62110  Biso   1.000  H
  C89      1.0000 0.62520  0.56420  0.55863  Biso   1.000  C
  H60      1.0000 0.65890  0.50360  0.57050  Biso   1.000  H
  C90      1.0000 0.64350  0.60090  0.51026  Biso   1.000  C
  H61      1.0000 0.68640  0.56330  0.48870  Biso   1.000  H
  C91      1.0000 0.59790  0.69440  0.49364  Biso   1.000  C
  C92      1.0000 0.60930  0.73500  0.44339  Biso   1.000  C
  C93      1.0000 0.66200  0.68530  0.40610  Biso   1.000  C
  H62      1.0000 0.69350  0.62180  0.41300  Biso   1.000  H
  C94      1.0000 0.66840  0.73010  0.35715  Biso   1.000  C
  H63      1.0000 0.70240  0.69570  0.33150  Biso   1.000  H
  C95      1.0000 0.62360  0.82590  0.34746  Biso   1.000  C
  H64      1.0000 0.62850  0.85640  0.31550  Biso   1.000  H
  C96      1.0000 0.57190  0.87500  0.38565  Biso   1.000  C
  H65      1.0000 0.54110  0.93870  0.37900  Biso   1.000  H
  N5       1.0000 0.53140  0.74920  0.52547  Biso   1.000  N
  N6       1.0000 0.56460  0.83170  0.43378  Biso   1.000  N
  O15      1.0000 0.32160  0.80440  0.44764  Biso   1.000  O
  O16      1.0000 0.16950  0.90085  0.41067  Biso   1.000  O
  O17      1.0000 0.34900  0.90550  0.55273  Biso   1.000  O
  O18      1.0000 0.18880  0.00194  0.52072  Biso   1.000  O
  O19      1.0000 0.31100  0.09977  0.36023  Biso   1.000  O
  O20      1.0000 0.17230  0.13423  0.41153  Biso   1.000  O
  O21      1.0000 0.41160  0.02281  0.45932  Biso   1.000  O
  H66      1.0000 0.43230  0.02300  0.42880  Biso   1.000  H
  Zn5      1.0000 0.23205  0.01770  0.45107  Biso   1.000  Zn
  Zn6      1.0000 0.46257  0.88628  0.49300  Biso   1.000  Zn
  C97      1.0000 0.76730  0.31810  0.08506  Biso   1.000  C
  C98      1.0000 0.81090  0.23980  0.12478  Biso   1.000  C
  C99      1.0000 0.72990  0.16300  0.13219  Biso   1.000  C
  H67      1.0000 0.65300  0.16050  0.11210  Biso   1.000  H
  C100     1.0000 0.76360  0.09170  0.16897  Biso   1.000  C
  H68      1.0000 0.70940  0.04070  0.17380  Biso   1.000  H
  C101     1.0000 0.88000  0.09460  0.19984  Biso   1.000  C
  C102     1.0000 0.95910  0.17130  0.19222  Biso   1.000  C
  H69      1.0000 0.03550  0.17460  0.21270  Biso   1.000  H
  C103     1.0000 0.92560  0.24390  0.15410  Biso   1.000  C
  H70      1.0000 0.98000  0.29430  0.14860  Biso   1.000  H
  C104     1.0000 0.92120  0.01380  0.24068  Biso   1.000  C
  H71      1.0000 0.01090  0.01610  0.24760  Biso   1.000  H
  C105     1.0000 0.87300  0.46790  0.79358  Biso   1.000  C
  C106     1.0000 0.76040  0.42560  0.79811  Biso   1.000  C
  H72      1.0000 0.71210  0.40090  0.76840  Biso   1.000  H
  C107     1.0000 0.71830  0.41940  0.84651  Biso   1.000  C
  H73      1.0000 0.64140  0.39300  0.84890  Biso   1.000  H
  C108     1.0000 0.79250  0.45300  0.89127  Biso   1.000  C
  C109     1.0000 0.90530  0.49560  0.88645  Biso   1.000  C
  H74      1.0000 0.95440  0.51970  0.91600  Biso   1.000  H
  C110     1.0000 0.94580  0.50230  0.83766  Biso   1.000  C
  H75      1.0000 0.02180  0.53010  0.83500  Biso   1.000  H
  C111     1.0000 0.74830  0.45260  0.94286  Biso   1.000  C
  C112     1.0000 0.88540  0.91200  0.21691  Biso   1.000  C
  C113     1.0000 0.78430  0.85890  0.22754  Biso   1.000  C
  H76      1.0000 0.73920  0.88100  0.25320  Biso   1.000  H
  C114     1.0000 0.74990  0.77190  0.19969  Biso   1.000  C
  H77      1.0000 0.68040  0.73730  0.20590  Biso   1.000  H
  C115     1.0000 0.81990  0.73710  0.16262  Biso   1.000  C
  C116     1.0000 0.92340  0.79010  0.15275  Biso   1.000  C
  H78      1.0000 0.96920  0.76730  0.12750  Biso   1.000  H
  C117     1.0000 0.95790  0.87600  0.18022  Biso   1.000  C
  H79      1.0000 0.02850  0.90970  0.17450  Biso   1.000  H
  C118     1.0000 0.77680  0.64930  0.12934  Biso   1.000  C
  C119     1.0000 0.49140  0.21150  0.92742  Biso   1.000  C
  H80      1.0000 0.53810  0.24750  0.90670  Biso   1.000  H
  C120     1.0000 0.44390  0.11890  0.91089  Biso   1.000  C
  H81      1.0000 0.45900  0.09360  0.87890  Biso   1.000  H
  C121     1.0000 0.37480  0.06420  0.94137  Biso   1.000  C
  H82      1.0000 0.34110  0.00360  0.92950  Biso   1.000  H
  C122     1.0000 0.35650  0.10090  0.98974  Biso   1.000  C
  H83      1.0000 0.31360  0.06330  0.01130  Biso   1.000  H
  C123     1.0000 0.40210  0.19440  0.00636  Biso   1.000  C
  C124     1.0000 0.39070  0.23500  0.05661  Biso   1.000  C
  C125     1.0000 0.33800  0.18530  0.09390  Biso   1.000  C
  H84      1.0000 0.30650  0.12180  0.08700  Biso   1.000  H
  C126     1.0000 0.33160  0.23010  0.14285  Biso   1.000  C
  H85      1.0000 0.29760  0.19570  0.16850  Biso   1.000  H
  C127     1.0000 0.37640  0.32590  0.15254  Biso   1.000  C
  H86      1.0000 0.37150  0.35640  0.18450  Biso   1.000  H
  C128     1.0000 0.42810  0.37500  0.11435  Biso   1.000  C
  H87      1.0000 0.45890  0.43870  0.12100  Biso   1.000  H
  N7       1.0000 0.46860  0.24920  0.97453  Biso   1.000  N
  N8       1.0000 0.43540  0.33170  0.06622  Biso   1.000  N
  O22      1.0000 0.67840  0.30440  0.05236  Biso   1.000  O
  O23      1.0000 0.83050  0.40085  0.08933  Biso   1.000  O
  O24      1.0000 0.65100  0.40550  0.94727  Biso   1.000  O
  O25      1.0000 0.81120  0.50194  0.97928  Biso   1.000  O
  O26      1.0000 0.68900  0.59977  0.13977  Biso   1.000  O
  O27      1.0000 0.82770  0.63423  0.08847  Biso   1.000  O
  O28      1.0000 0.58840  0.52281  0.04068  Biso   1.000  O
  H88      1.0000 0.56770  0.52300  0.07120  Biso   1.000  H
  Zn7      1.0000 0.76795  0.51770  0.04893  Biso   1.000  Zn
  Zn8      1.0000 0.53743  0.38628  0.00700  Biso   1.000  Zn
