data_image0
_cell_length_a       15.2389
_cell_length_b       15.997
_cell_length_c       17.4713
_cell_angle_alpha    64.428
_cell_angle_beta     82.624
_cell_angle_gamma    68.486

_symmetry_space_group_name_H-M    "P 1"
_symmetry_int_tables_number       1

loop_
  _symmetry_equiv_pos_as_xyz
  'x, y, z'

loop_
  _atom_site_label
  _atom_site_occupancy
  _atom_site_fract_x
  _atom_site_fract_y
  _atom_site_fract_z
  _atom_site_thermal_displace_type
  _atom_site_B_iso_or_equiv
  _atom_site_type_symbol
  Mn1      1.0000 0.65902  0.93780  0.34196  Biso   1.000  Mn
  Mn2      1.0000 0.84071  0.70329  0.46418  Biso   1.000  Mn
  Si1      1.0000 0.06334  0.16609  0.12529  Biso   1.000  Si
  Si2      1.0000 0.53779  0.58352  0.13484  Biso   1.000  Si
  O1       1.0000 0.94010  0.75380  0.36120  Biso   1.000  O
  O2       1.0000 0.51410  0.99250  0.29660  Biso   1.000  O
  O3       1.0000 0.81340  0.86790  0.37750  Biso   1.000  O
  C1       1.0000 0.59260  0.14070  0.34940  Biso   1.000  C
  O4       1.0000 0.54020  0.12280  0.41080  Biso   1.000  O
  C2       1.0000 0.58100  0.24810  0.29640  Biso   1.000  C
  O5       1.0000 0.78160  0.66610  0.38460  Biso   1.000  O
  C3       1.0000 0.93170  0.92220  0.28660  Biso   1.000  C
  O6       1.0000 0.72720  0.73230  0.54260  Biso   1.000  O
  C4       1.0000 0.55710  0.44850  0.19690  Biso   1.000  C
  O7       1.0000 0.65480  0.07740  0.32980  Biso   1.000  O
  C5       1.0000 0.87620  0.02060  0.25750  Biso   1.000  C
  H1       1.0000 0.81320  0.03920  0.27180  Biso   1.000  H
  C6       1.0000 0.26440  0.11150  0.29600  Biso   1.000  C
  H2       1.0000 0.26360  0.12540  0.34270  Biso   1.000  H
  O8       1.0000 0.66290  0.80680  0.33810  Biso   1.000  O
  C7       1.0000 0.17800  0.12490  0.18200  Biso   1.000  C
  C8       1.0000 0.63190  0.37360  0.18670  Biso   1.000  C
  H3       1.0000 0.67510  0.39010  0.14540  Biso   1.000  H
  C9       1.0000 0.34760  0.05550  0.27540  Biso   1.000  C
  C10      1.0000 0.64520  0.27420  0.23580  Biso   1.000  C
  H4       1.0000 0.69720  0.22560  0.22780  Biso   1.000  H
  C11      1.0000 0.66530  0.68730  0.29370  Biso   1.000  C
  C12      1.0000 0.50610  0.32180  0.30730  Biso   1.000  C
  H5       1.0000 0.46250  0.30520  0.34810  Biso   1.000  H
  O9       1.0000 0.42320  0.01420  0.40120  Biso   1.000  O
  C13      1.0000 0.58480  0.62490  0.20080  Biso   1.000  C
  C14      1.0000 0.02530  0.89630  0.26410  Biso   1.000  C
  H6       1.0000 0.06290  0.83000  0.28230  Biso   1.000  H
  C15      1.0000 0.43600  0.01760  0.32790  Biso   1.000  C
  C16      1.0000 0.49410  0.41970  0.25890  Biso   1.000  C
  H7       1.0000 0.44250  0.46800  0.26780  Biso   1.000  H
  C17      1.0000 0.26220  0.06640  0.16340  Biso   1.000  C
  H8       1.0000 0.26260  0.04900  0.11890  Biso   1.000  H
  C18      1.0000 0.18170  0.14810  0.24960  Biso   1.000  C
  H9       1.0000 0.12730  0.18900  0.26370  Biso   1.000  H
  C19      1.0000 0.66310  0.56170  0.25600  Biso   1.000  C
  H10      1.0000 0.68940  0.49650  0.26250  Biso   1.000  H
  C20      1.0000 0.70320  0.59190  0.30150  Biso   1.000  C
  H11      1.0000 0.75570  0.54750  0.33730  Biso   1.000  H
  C21      1.0000 0.60120  0.60640  0.03250  Biso   1.000  C
  C22      1.0000 0.08860  0.17700  0.01430  Biso   1.000  C
  C23      1.0000 0.54740  0.72210  0.19490  Biso   1.000  C
  H12      1.0000 0.49460  0.76690  0.15970  Biso   1.000  H
  C24      1.0000 0.91520  0.09160  0.20680  Biso   1.000  C
  H13      1.0000 0.87650  0.15780  0.18610  Biso   1.000  H
  C25      1.0000 0.98110  0.28710  0.12410  Biso   1.000  C
  C26      1.0000 0.34570  0.03270  0.20770  Biso   1.000  C
  H14      1.0000 0.40100  0.99450  0.19210  Biso   1.000  H
  C27      1.0000 0.35000  0.68380  0.17060  Biso   1.000  C
  H15      1.0000 0.37550  0.66910  0.22240  Biso   1.000  H
  C28      1.0000 0.06030  0.12730  0.97970  Biso   1.000  C
  H16      1.0000 0.02640  0.08670  0.01240  Biso   1.000  H
  C29      1.0000 0.58740  0.75230  0.24030  Biso   1.000  C
  H17      1.0000 0.56160  0.81720  0.23480  Biso   1.000  H
  C30      1.0000 0.40850  0.65380  0.11290  Biso   1.000  C
  C31      1.0000 0.64210  0.58100  0.90360  Biso   1.000  C
  H18      1.0000 0.64220  0.54720  0.87160  Biso   1.000  H
  C32      1.0000 0.08130  0.13640  0.89780  Biso   1.000  C
  H19      1.0000 0.06250  0.10100  0.87670  Biso   1.000  H
  C33      1.0000 0.94570  0.29540  0.20030  Biso   1.000  C
  H20      1.0000 0.96140  0.23930  0.25130  Biso   1.000  H
  C34      1.0000 0.95030  0.37090  0.04880  Biso   1.000  C
  H21      1.0000 0.96970  0.36770  0.99720  Biso   1.000  H
  C35      1.0000 0.13930  0.23720  0.96220  Biso   1.000  C
  H22      1.0000 0.16000  0.27100  0.98380  Biso   1.000  H
  C36      1.0000 0.60330  0.55750  0.98190  Biso   1.000  C
  H23      1.0000 0.57770  0.50760  0.00220  Biso   1.000  H
  C37      1.0000 0.15950  0.24800  0.88020  Biso   1.000  C
  H24      1.0000 0.19280  0.28890  0.84680  Biso   1.000  H
  C38      1.0000 0.12940  0.19700  0.84760  Biso   1.000  C
  H25      1.0000 0.14200  0.20410  0.79200  Biso   1.000  H
  C39      1.0000 0.88860  0.38460  0.20070  Biso   1.000  C
  H26      1.0000 0.86860  0.38980  0.25160  Biso   1.000  H
  C40      1.0000 0.68430  0.69990  0.92070  Biso   1.000  C
  H27      1.0000 0.71310  0.74730  0.90000  Biso   1.000  H
  C41      1.0000 0.36650  0.67790  0.03540  Biso   1.000  C
  H28      1.0000 0.40440  0.65930  0.99520  Biso   1.000  H
  C42      1.0000 0.64590  0.67710  0.00060  Biso   1.000  C
  H29      1.0000 0.64990  0.70880  0.03310  Biso   1.000  H
  O10      1.0000 0.62880  0.88810  0.47750  Biso   1.000  O
  C43      1.0000 0.66360  0.80710  0.54240  Biso   1.000  C
  H30      1.0000 0.63860  0.80430  0.59460  Biso   1.000  H
  C44      1.0000 0.70700  0.72310  0.34150  Biso   1.000  C
  C45      1.0000 0.89310  0.84330  0.34400  Biso   1.000  C
  C46      1.0000 0.68030  0.65340  0.87230  Biso   1.000  C
  H31      1.0000 0.70370  0.67120  0.81790  Biso   1.000  H
  C47      1.0000 0.00900  0.06880  0.18550  Biso   1.000  C
  C48      1.0000 0.06310  0.96850  0.21480  Biso   1.000  C
  H32      1.0000 0.12620  0.94980  0.20090  Biso   1.000  H
  C49      1.0000 0.89050  0.45990  0.05050  Biso   1.000  C
  H33      1.0000 0.87060  0.51530  0.99940  Biso   1.000  H
  C50      1.0000 0.86080  0.46840  0.12220  Biso   1.000  C
  H34      1.0000 0.82180  0.52930  0.12100  Biso   1.000  H
  C51      1.0000 0.21550  0.75340  0.07700  Biso   1.000  C
  H35      1.0000 0.15050  0.78330  0.06680  Biso   1.000  H
  C52      1.0000 0.27130  0.72800  0.01700  Biso   1.000  C
  H36      1.0000 0.24540  0.74420  0.96490  Biso   1.000  H
  C53      1.0000 0.25380  0.73560  0.15260  Biso   1.000  C
  H37      1.0000 0.21570  0.75790  0.19090  Biso   1.000  H
  O11      1.0000 0.69410  0.00040  0.20630  Biso   1.000  O
  O12      1.0000 0.69960  0.96880  0.20850  Biso   1.000  O
  N1       1.0000 0.64290  0.02920  0.07430  Biso   1.000  N
  C54      1.0000 0.63790  0.01940  0.15400  Biso   1.000  C
  H38      1.0000 0.57680  0.02960  0.17360  Biso   1.000  H
  N2       1.0000 0.60180  0.06890  0.09800  Biso   1.000  N
  C55      1.0000 0.55770  0.09010  0.02240  Biso   1.000  C
  H39      1.0000 0.51120  0.05890  0.03580  Biso   1.000  H
  H40      1.0000 0.60410  0.06570  0.98730  Biso   1.000  H
  H41      1.0000 0.52760  0.16030  0.99250  Biso   1.000  H
  C56      1.0000 0.56850  0.14410  0.13190  Biso   1.000  C
  H42      1.0000 0.58740  0.19940  0.09590  Biso   1.000  H
  H43      1.0000 0.59540  0.11650  0.18810  Biso   1.000  H
  H44      1.0000 0.50100  0.16570  0.13410  Biso   1.000  H
  C57      1.0000 0.58890  0.99230  0.04270  Biso   1.000  C
  H45      1.0000 0.61320  0.92140  0.06840  Biso   1.000  H
  H46      1.0000 0.59370  0.01560  0.98220  Biso   1.000  H
  H47      1.0000 0.52400  0.01540  0.05650  Biso   1.000  H
  C58      1.0000 0.70920  0.06590  0.01690  Biso   1.000  C
  H48      1.0000 0.72930  0.10450  0.03560  Biso   1.000  H
  H49      1.0000 0.68000  0.10640  0.96110  Biso   1.000  H
  H50      1.0000 0.76280  0.01140  0.01530  Biso   1.000  H
  C59      1.0000 0.66470  0.97990  0.14450  Biso   1.000  C
  H51      1.0000 0.68110  0.92820  0.12810  Biso   1.000  H
  Mn3      1.0000 0.34098  0.06220  0.65804  Biso   1.000  Mn
  Mn4      1.0000 0.15929  0.29671  0.53582  Biso   1.000  Mn
  Si3      1.0000 0.93666  0.83391  0.87471  Biso   1.000  Si
  Si4      1.0000 0.46221  0.41648  0.86516  Biso   1.000  Si
  O13      1.0000 0.05990  0.24620  0.63880  Biso   1.000  O
  O14      1.0000 0.48590  0.00750  0.70340  Biso   1.000  O
  O15      1.0000 0.18660  0.13210  0.62250  Biso   1.000  O
  C60      1.0000 0.40740  0.85930  0.65060  Biso   1.000  C
  O16      1.0000 0.45980  0.87720  0.58920  Biso   1.000  O
  C61      1.0000 0.41900  0.75190  0.70360  Biso   1.000  C
  O17      1.0000 0.21840  0.33390  0.61540  Biso   1.000  O
  C62      1.0000 0.06830  0.07780  0.71340  Biso   1.000  C
  O18      1.0000 0.27280  0.26770  0.45740  Biso   1.000  O
  C63      1.0000 0.44290  0.55150  0.80310  Biso   1.000  C
  O19      1.0000 0.34520  0.92260  0.67020  Biso   1.000  O
  C64      1.0000 0.12380  0.97940  0.74250  Biso   1.000  C
  H52      1.0000 0.18680  0.96080  0.72820  Biso   1.000  H
  C65      1.0000 0.73560  0.88850  0.70400  Biso   1.000  C
  H53      1.0000 0.73640  0.87460  0.65730  Biso   1.000  H
  O20      1.0000 0.33710  0.19320  0.66190  Biso   1.000  O
  C66      1.0000 0.82200  0.87510  0.81800  Biso   1.000  C
  C67      1.0000 0.36810  0.62640  0.81330  Biso   1.000  C
  H54      1.0000 0.32490  0.60990  0.85460  Biso   1.000  H
  C68      1.0000 0.65240  0.94450  0.72460  Biso   1.000  C
  C69      1.0000 0.35480  0.72580  0.76420  Biso   1.000  C
  H55      1.0000 0.30280  0.77440  0.77220  Biso   1.000  H
  C70      1.0000 0.33470  0.31270  0.70630  Biso   1.000  C
  C71      1.0000 0.49390  0.67820  0.69270  Biso   1.000  C
  H56      1.0000 0.53750  0.69480  0.65190  Biso   1.000  H
  O21      1.0000 0.57680  0.98580  0.59880  Biso   1.000  O
  C72      1.0000 0.41520  0.37510  0.79920  Biso   1.000  C
  C73      1.0000 0.97470  0.10370  0.73590  Biso   1.000  C
  H57      1.0000 0.93710  0.17000  0.71770  Biso   1.000  H
  C74      1.0000 0.56400  0.98240  0.67210  Biso   1.000  C
  C75      1.0000 0.50590  0.58030  0.74110  Biso   1.000  C
  H58      1.0000 0.55750  0.53200  0.73220  Biso   1.000  H
  C76      1.0000 0.73780  0.93360  0.83660  Biso   1.000  C
  H59      1.0000 0.73740  0.95100  0.88110  Biso   1.000  H
  C77      1.0000 0.81830  0.85190  0.75040  Biso   1.000  C
  H60      1.0000 0.87270  0.81100  0.73630  Biso   1.000  H
  C78      1.0000 0.33690  0.43830  0.74400  Biso   1.000  C
  H61      1.0000 0.31060  0.50350  0.73750  Biso   1.000  H
  C79      1.0000 0.29680  0.40810  0.69850  Biso   1.000  C
  H62      1.0000 0.24430  0.45250  0.66270  Biso   1.000  H
  C80      1.0000 0.39880  0.39360  0.96750  Biso   1.000  C
  C81      1.0000 0.91140  0.82300  0.98570  Biso   1.000  C
  C82      1.0000 0.45260  0.27790  0.80510  Biso   1.000  C
  H63      1.0000 0.50540  0.23310  0.84030  Biso   1.000  H
  C83      1.0000 0.08480  0.90840  0.79320  Biso   1.000  C
  H64      1.0000 0.12350  0.84220  0.81390  Biso   1.000  H
  C84      1.0000 0.01890  0.71290  0.87590  Biso   1.000  C
  C85      1.0000 0.65430  0.96730  0.79230  Biso   1.000  C
  H65      1.0000 0.59900  0.00550  0.80790  Biso   1.000  H
  C86      1.0000 0.65000  0.31620  0.82940  Biso   1.000  C
  H66      1.0000 0.62450  0.33090  0.77760  Biso   1.000  H
  C87      1.0000 0.93970  0.87270  0.02030  Biso   1.000  C
  H67      1.0000 0.97360  0.91330  0.98760  Biso   1.000  H
  C88      1.0000 0.41260  0.24770  0.75970  Biso   1.000  C
  H68      1.0000 0.43840  0.18280  0.76520  Biso   1.000  H
  C89      1.0000 0.59150  0.34620  0.88710  Biso   1.000  C
  C90      1.0000 0.35790  0.41900  0.09640  Biso   1.000  C
  H69      1.0000 0.35780  0.45280  0.12840  Biso   1.000  H
  C91      1.0000 0.91870  0.86360  0.10220  Biso   1.000  C
  H70      1.0000 0.93750  0.89900  0.12330  Biso   1.000  H
  C92      1.0000 0.05430  0.70460  0.79970  Biso   1.000  C
  H71      1.0000 0.03860  0.76070  0.74870  Biso   1.000  H
  C93      1.0000 0.04970  0.62910  0.95120  Biso   1.000  C
  H72      1.0000 0.03030  0.63230  0.00280  Biso   1.000  H
  C94      1.0000 0.86070  0.76280  0.03780  Biso   1.000  C
  H73      1.0000 0.84000  0.72900  0.01620  Biso   1.000  H
  C95      1.0000 0.39670  0.44250  0.01810  Biso   1.000  C
  H74      1.0000 0.42230  0.49240  0.99780  Biso   1.000  H
  C96      1.0000 0.84050  0.75200  0.11980  Biso   1.000  C
  H75      1.0000 0.80720  0.71110  0.15320  Biso   1.000  H
  C97      1.0000 0.87060  0.80300  0.15240  Biso   1.000  C
  H76      1.0000 0.85800  0.79590  0.20800  Biso   1.000  H
  C98      1.0000 0.11140  0.61540  0.79930  Biso   1.000  C
  H77      1.0000 0.13140  0.61020  0.74840  Biso   1.000  H
  C99      1.0000 0.31570  0.30010  0.07930  Biso   1.000  C
  H78      1.0000 0.28690  0.25270  0.10000  Biso   1.000  H
  C100     1.0000 0.63350  0.32210  0.96460  Biso   1.000  C
  H79      1.0000 0.59560  0.34070  0.00480  Biso   1.000  H
  C101     1.0000 0.35410  0.32290  0.99940  Biso   1.000  C
  H80      1.0000 0.35010  0.29120  0.96690  Biso   1.000  H
  O22      1.0000 0.37120  0.11190  0.52250  Biso   1.000  O
  C102     1.0000 0.33640  0.19290  0.45760  Biso   1.000  C
  H81      1.0000 0.36140  0.19570  0.40540  Biso   1.000  H
  C103     1.0000 0.29300  0.27690  0.65850  Biso   1.000  C
  C104     1.0000 0.10690  0.15670  0.65600  Biso   1.000  C
  C105     1.0000 0.31970  0.34660  0.12770  Biso   1.000  C
  H82      1.0000 0.29630  0.32880  0.18210  Biso   1.000  H
  C106     1.0000 0.99100  0.93120  0.81450  Biso   1.000  C
  C107     1.0000 0.93690  0.03150  0.78520  Biso   1.000  C
  H83      1.0000 0.87380  0.05020  0.79910  Biso   1.000  H
  C108     1.0000 0.10950  0.54010  0.94950  Biso   1.000  C
  H84      1.0000 0.12940  0.48470  0.00060  Biso   1.000  H
  C109     1.0000 0.13920  0.53160  0.87780  Biso   1.000  C
  H85      1.0000 0.17820  0.47070  0.87900  Biso   1.000  H
  C110     1.0000 0.78450  0.24660  0.92300  Biso   1.000  C
  H86      1.0000 0.84950  0.21670  0.93320  Biso   1.000  H
  C111     1.0000 0.72870  0.27200  0.98300  Biso   1.000  C
  H87      1.0000 0.75460  0.25580  0.03510  Biso   1.000  H
  C112     1.0000 0.74620  0.26440  0.84740  Biso   1.000  C
  H88      1.0000 0.78430  0.24210  0.80910  Biso   1.000  H
  O23      1.0000 0.30590  0.99960  0.79370  Biso   1.000  O
  O24      1.0000 0.30040  0.03120  0.79150  Biso   1.000  O
  N3       1.0000 0.35710  0.97080  0.92570  Biso   1.000  N
  C113     1.0000 0.36210  0.98060  0.84600  Biso   1.000  C
  H89      1.0000 0.42320  0.97040  0.82640  Biso   1.000  H
  N4       1.0000 0.39820  0.93110  0.90200  Biso   1.000  N
  C114     1.0000 0.44230  0.90990  0.97760  Biso   1.000  C
  H90      1.0000 0.48880  0.94110  0.96420  Biso   1.000  H
  H91      1.0000 0.39590  0.93430  0.01270  Biso   1.000  H
  H92      1.0000 0.47240  0.83970  0.00750  Biso   1.000  H
  C115     1.0000 0.43150  0.85590  0.86810  Biso   1.000  C
  H93      1.0000 0.41260  0.80060  0.90410  Biso   1.000  H
  H94      1.0000 0.40460  0.88350  0.81190  Biso   1.000  H
  H95      1.0000 0.49900  0.83430  0.86590  Biso   1.000  H
  C116     1.0000 0.41110  0.00770  0.95730  Biso   1.000  C
  H96      1.0000 0.38680  0.07860  0.93160  Biso   1.000  H
  H97      1.0000 0.40630  0.98440  0.01780  Biso   1.000  H
  H98      1.0000 0.47600  0.98460  0.94350  Biso   1.000  H
  C117     1.0000 0.29080  0.93410  0.98310  Biso   1.000  C
  H99      1.0000 0.27070  0.89550  0.96440  Biso   1.000  H
  H100     1.0000 0.32000  0.89360  0.03890  Biso   1.000  H
  H101     1.0000 0.23720  0.98860  0.98470  Biso   1.000  H
  C118     1.0000 0.33530  0.02010  0.85550  Biso   1.000  C
  H102     1.0000 0.31890  0.07180  0.87190  Biso   1.000  H
  Mn5      1.0000 0.50000  0.00000  0.50000  Biso   1.000  Mn
