data_image0
_cell_length_a       14.7731
_cell_length_b       18.9394
_cell_length_c       8.7562
_cell_angle_alpha    90
_cell_angle_beta     122.551
_cell_angle_gamma    90

_symmetry_space_group_name_H-M    "P 1"
_symmetry_int_tables_number       1

loop_
  _symmetry_equiv_pos_as_xyz
  'x, y, z'

loop_
  _atom_site_label
  _atom_site_occupancy
  _atom_site_fract_x
  _atom_site_fract_y
  _atom_site_fract_z
  _atom_site_thermal_displace_type
  _atom_site_B_iso_or_equiv
  _atom_site_type_symbol
  N1       1.0000 0.82850  0.40150  0.98080  Biso   1.000  N
  N2       1.0000 0.54580  0.44420  0.33710  Biso   1.000  N
  C1       1.0000 0.63760  0.40890  0.64110  Biso   1.000  C
  C2       1.0000 0.74750  0.35790  0.93460  Biso   1.000  C
  H1       1.0000 0.75600  0.32400  0.01830  Biso   1.000  H
  C3       1.0000 0.53940  0.40890  0.45460  Biso   1.000  C
  C4       1.0000 0.65080  0.36010  0.76840  Biso   1.000  C
  H2       1.0000 0.59560  0.32900  0.74320  Biso   1.000  H
  C5       1.0000 0.81350  0.44970  0.85700  Biso   1.000  C
  H3       1.0000 0.86850  0.48150  0.88640  Biso   1.000  H
  C6       1.0000 0.72090  0.45420  0.68940  Biso   1.000  C
  H4       1.0000 0.71460  0.48830  0.60770  Biso   1.000  H
  C7       1.0000 0.44470  0.36580  0.41500  Biso   1.000  C
  H5       1.0000 0.45850  0.34410  0.52460  Biso   1.000  H
  H6       1.0000 0.38260  0.39560  0.36650  Biso   1.000  H
  H7       1.0000 0.43190  0.32980  0.32820  Biso   1.000  H
  N3       1.0000 0.17150  0.40150  0.51920  Biso   1.000  N
  N4       1.0000 0.45420  0.44420  0.16290  Biso   1.000  N
  C8       1.0000 0.36240  0.40890  0.85890  Biso   1.000  C
  C9       1.0000 0.25250  0.35790  0.56540  Biso   1.000  C
  H8       1.0000 0.24400  0.32400  0.48170  Biso   1.000  H
  C10      1.0000 0.46060  0.40890  0.04540  Biso   1.000  C
  C11      1.0000 0.34920  0.36010  0.73160  Biso   1.000  C
  H9       1.0000 0.40440  0.32900  0.75680  Biso   1.000  H
  C12      1.0000 0.18650  0.44970  0.64300  Biso   1.000  C
  H10      1.0000 0.13150  0.48150  0.61360  Biso   1.000  H
  C13      1.0000 0.27910  0.45420  0.81060  Biso   1.000  C
  H11      1.0000 0.28540  0.48830  0.89230  Biso   1.000  H
  C14      1.0000 0.55530  0.36580  0.08500  Biso   1.000  C
  H12      1.0000 0.54150  0.34410  0.97540  Biso   1.000  H
  H13      1.0000 0.61740  0.39560  0.13350  Biso   1.000  H
  H14      1.0000 0.56810  0.32980  0.17180  Biso   1.000  H
  Cd1      1.0000 0.00000  0.39032  0.25000  Biso   1.000  Cd
  N5       1.0000 0.32850  0.90150  0.98080  Biso   1.000  N
  N6       1.0000 0.04580  0.94420  0.33710  Biso   1.000  N
  C15      1.0000 0.13760  0.90890  0.64110  Biso   1.000  C
  C16      1.0000 0.24750  0.85790  0.93460  Biso   1.000  C
  H15      1.0000 0.25600  0.82400  0.01830  Biso   1.000  H
  C17      1.0000 0.03940  0.90890  0.45460  Biso   1.000  C
  C18      1.0000 0.15080  0.86010  0.76840  Biso   1.000  C
  H16      1.0000 0.09560  0.82900  0.74320  Biso   1.000  H
  C19      1.0000 0.31350  0.94970  0.85700  Biso   1.000  C
  H17      1.0000 0.36850  0.98150  0.88640  Biso   1.000  H
  C20      1.0000 0.22090  0.95420  0.68940  Biso   1.000  C
  H18      1.0000 0.21460  0.98830  0.60770  Biso   1.000  H
  C21      1.0000 0.94470  0.86580  0.41500  Biso   1.000  C
  H19      1.0000 0.95850  0.84410  0.52460  Biso   1.000  H
  H20      1.0000 0.88260  0.89560  0.36650  Biso   1.000  H
  H21      1.0000 0.93190  0.82980  0.32820  Biso   1.000  H
  N7       1.0000 0.67150  0.90150  0.51920  Biso   1.000  N
  N8       1.0000 0.95420  0.94420  0.16290  Biso   1.000  N
  C22      1.0000 0.86240  0.90890  0.85890  Biso   1.000  C
  C23      1.0000 0.75250  0.85790  0.56540  Biso   1.000  C
  H22      1.0000 0.74400  0.82400  0.48170  Biso   1.000  H
  C24      1.0000 0.96060  0.90890  0.04540  Biso   1.000  C
  C25      1.0000 0.84920  0.86010  0.73160  Biso   1.000  C
  H23      1.0000 0.90440  0.82900  0.75680  Biso   1.000  H
  C26      1.0000 0.68650  0.94970  0.64300  Biso   1.000  C
  H24      1.0000 0.63150  0.98150  0.61360  Biso   1.000  H
  C27      1.0000 0.77910  0.95420  0.81060  Biso   1.000  C
  H25      1.0000 0.78540  0.98830  0.89230  Biso   1.000  H
  C28      1.0000 0.05530  0.86580  0.08500  Biso   1.000  C
  H26      1.0000 0.04150  0.84410  0.97540  Biso   1.000  H
  H27      1.0000 0.11740  0.89560  0.13350  Biso   1.000  H
  H28      1.0000 0.06810  0.82980  0.17180  Biso   1.000  H
  Cd2      1.0000 0.50000  0.89032  0.25000  Biso   1.000  Cd
  N9       1.0000 0.17150  0.59850  0.01920  Biso   1.000  N
  N10      1.0000 0.45420  0.55580  0.66290  Biso   1.000  N
  C29      1.0000 0.36240  0.59110  0.35890  Biso   1.000  C
  C30      1.0000 0.25250  0.64210  0.06540  Biso   1.000  C
  H29      1.0000 0.24400  0.67600  0.98170  Biso   1.000  H
  C31      1.0000 0.46060  0.59110  0.54540  Biso   1.000  C
  C32      1.0000 0.34920  0.63990  0.23160  Biso   1.000  C
  H30      1.0000 0.40440  0.67100  0.25680  Biso   1.000  H
  C33      1.0000 0.18650  0.55030  0.14300  Biso   1.000  C
  H31      1.0000 0.13150  0.51850  0.11360  Biso   1.000  H
  C34      1.0000 0.27910  0.54580  0.31060  Biso   1.000  C
  H32      1.0000 0.28540  0.51170  0.39230  Biso   1.000  H
  C35      1.0000 0.55530  0.63420  0.58500  Biso   1.000  C
  H33      1.0000 0.54150  0.65590  0.47540  Biso   1.000  H
  H34      1.0000 0.61740  0.60440  0.63350  Biso   1.000  H
  H35      1.0000 0.56810  0.67020  0.67180  Biso   1.000  H
  N11      1.0000 0.82850  0.59850  0.48080  Biso   1.000  N
  N12      1.0000 0.54580  0.55580  0.83710  Biso   1.000  N
  C36      1.0000 0.63760  0.59110  0.14110  Biso   1.000  C
  C37      1.0000 0.74750  0.64210  0.43460  Biso   1.000  C
  H36      1.0000 0.75600  0.67600  0.51830  Biso   1.000  H
  C38      1.0000 0.53940  0.59110  0.95460  Biso   1.000  C
  C39      1.0000 0.65080  0.63990  0.26840  Biso   1.000  C
  H37      1.0000 0.59560  0.67100  0.24320  Biso   1.000  H
  C40      1.0000 0.81350  0.55030  0.35700  Biso   1.000  C
  H38      1.0000 0.86850  0.51850  0.38640  Biso   1.000  H
  C41      1.0000 0.72090  0.54580  0.18940  Biso   1.000  C
  H39      1.0000 0.71460  0.51170  0.10770  Biso   1.000  H
  C42      1.0000 0.44470  0.63420  0.91500  Biso   1.000  C
  H40      1.0000 0.45850  0.65590  0.02460  Biso   1.000  H
  H41      1.0000 0.38260  0.60440  0.86650  Biso   1.000  H
  H42      1.0000 0.43190  0.67020  0.82820  Biso   1.000  H
  Cd3      1.0000 0.00000  0.60968  0.75000  Biso   1.000  Cd
  N13      1.0000 0.67150  0.09850  0.01920  Biso   1.000  N
  N14      1.0000 0.95420  0.05580  0.66290  Biso   1.000  N
  C43      1.0000 0.86240  0.09110  0.35890  Biso   1.000  C
  C44      1.0000 0.75250  0.14210  0.06540  Biso   1.000  C
  H43      1.0000 0.74400  0.17600  0.98170  Biso   1.000  H
  C45      1.0000 0.96060  0.09110  0.54540  Biso   1.000  C
  C46      1.0000 0.84920  0.13990  0.23160  Biso   1.000  C
  H44      1.0000 0.90440  0.17100  0.25680  Biso   1.000  H
  C47      1.0000 0.68650  0.05030  0.14300  Biso   1.000  C
  H45      1.0000 0.63150  0.01850  0.11360  Biso   1.000  H
  C48      1.0000 0.77910  0.04580  0.31060  Biso   1.000  C
  H46      1.0000 0.78540  0.01170  0.39230  Biso   1.000  H
  C49      1.0000 0.05530  0.13420  0.58500  Biso   1.000  C
  H47      1.0000 0.04150  0.15590  0.47540  Biso   1.000  H
  H48      1.0000 0.11740  0.10440  0.63350  Biso   1.000  H
  H49      1.0000 0.06810  0.17020  0.67180  Biso   1.000  H
  N15      1.0000 0.32850  0.09850  0.48080  Biso   1.000  N
  N16      1.0000 0.04580  0.05580  0.83710  Biso   1.000  N
  C50      1.0000 0.13760  0.09110  0.14110  Biso   1.000  C
  C51      1.0000 0.24750  0.14210  0.43460  Biso   1.000  C
  H50      1.0000 0.25600  0.17600  0.51830  Biso   1.000  H
  C52      1.0000 0.03940  0.09110  0.95460  Biso   1.000  C
  C53      1.0000 0.15080  0.13990  0.26840  Biso   1.000  C
  H51      1.0000 0.09560  0.17100  0.24320  Biso   1.000  H
  C54      1.0000 0.31350  0.05030  0.35700  Biso   1.000  C
  H52      1.0000 0.36850  0.01850  0.38640  Biso   1.000  H
  C55      1.0000 0.22090  0.04580  0.18940  Biso   1.000  C
  H53      1.0000 0.21460  0.01170  0.10770  Biso   1.000  H
  C56      1.0000 0.94470  0.13420  0.91500  Biso   1.000  C
  H54      1.0000 0.95850  0.15590  0.02460  Biso   1.000  H
  H55      1.0000 0.88260  0.10440  0.86650  Biso   1.000  H
  H56      1.0000 0.93190  0.17020  0.82820  Biso   1.000  H
  Cd4      1.0000 0.50000  0.10968  0.75000  Biso   1.000  Cd
