data_image0
_cell_length_a       17.3405
_cell_length_b       13.6821
_cell_length_c       25.213
_cell_angle_alpha    90
_cell_angle_beta     109.982
_cell_angle_gamma    90

_symmetry_space_group_name_H-M    "P 1"
_symmetry_int_tables_number       1

loop_
  _symmetry_equiv_pos_as_xyz
  'x, y, z'

loop_
  _atom_site_label
  _atom_site_occupancy
  _atom_site_fract_x
  _atom_site_fract_y
  _atom_site_fract_z
  _atom_site_thermal_displace_type
  _atom_site_B_iso_or_equiv
  _atom_site_type_symbol
  Cd1      1.0000 0.45139  0.27461  0.82118  Biso   1.000  Cd
  N1       1.0000 0.44470  0.59930  0.84017  Biso   1.000  N
  N2       1.0000 0.43120  0.44250  0.81917  Biso   1.000  N
  N3       1.0000 0.57590  0.77440  0.01338  Biso   1.000  N
  C1       1.0000 0.65040  0.80960  0.09900  Biso   1.000  C
  H1       1.0000 0.69180  0.83600  0.12970  Biso   1.000  H
  N4       1.0000 0.46420  0.10580  0.81715  Biso   1.000  N
  N5       1.0000 0.48170  0.94960  0.83639  Biso   1.000  N
  O1       1.0000 0.30000  0.25230  0.75825  Biso   1.000  O
  O2       1.0000 0.39740  0.27090  0.72336  Biso   1.000  O
  O3       1.0000 0.58940  0.29820  0.89750  Biso   1.000  O
  O4       1.0000 0.58170  0.28720  0.81008  Biso   1.000  O
  C2       1.0000 0.47300  0.50890  0.85400  Biso   1.000  C
  H2       1.0000 0.51840  0.49470  0.88560  Biso   1.000  H
  C3       1.0000 0.37120  0.49140  0.78050  Biso   1.000  C
  H3       1.0000 0.33100  0.46360  0.74960  Biso   1.000  H
  C4       1.0000 0.37840  0.58810  0.79350  Biso   1.000  C
  H4       1.0000 0.34370  0.63760  0.77370  Biso   1.000  H
  C5       1.0000 0.64090  0.82660  0.04440  Biso   1.000  C
  H5       1.0000 0.67330  0.86690  0.03090  Biso   1.000  H
  N6       1.0000 0.59120  0.74850  0.10251  Biso   1.000  N
  C6       1.0000 0.54810  0.72980  0.05010  Biso   1.000  C
  H6       1.0000 0.50230  0.68920  0.03940  Biso   1.000  H
  C7       1.0000 0.47900  0.03890  0.85520  Biso   1.000  C
  H7       1.0000 0.48700  0.05250  0.89280  Biso   1.000  H
  C8       1.0000 0.49100  0.96370  0.78710  Biso   1.000  C
  H8       1.0000 0.50310  0.91610  0.76480  Biso   1.000  H
  C9       1.0000 0.47900  0.05900  0.77490  Biso   1.000  C
  H9       1.0000 0.48170  0.08840  0.74220  Biso   1.000  H
  C10      1.0000 0.47480  0.68880  0.86860  Biso   1.000  C
  C11      1.0000 0.51090  0.68730  0.92550  Biso   1.000  C
  H10      1.0000 0.51650  0.62890  0.94530  Biso   1.000  H
  C12      1.0000 0.53960  0.77410  0.95383  Biso   1.000  C
  C13      1.0000 0.53090  0.86120  0.92427  Biso   1.000  C
  H11      1.0000 0.55020  0.91940  0.94320  Biso   1.000  H
  C14      1.0000 0.49330  0.86030  0.86650  Biso   1.000  C
  C15      1.0000 0.46620  0.77390  0.83849  Biso   1.000  C
  H12      1.0000 0.44230  0.77320  0.79940  Biso   1.000  H
  C16      1.0000 0.32520  0.25370  0.71760  Biso   1.000  C
  C17      1.0000 0.26700  0.21200  0.66200  Biso   1.000  C
  C18      1.0000 0.19010  0.18700  0.65240  Biso   1.000  C
  H13      1.0000 0.17100  0.18610  0.68270  Biso   1.000  H
  C19      1.0000 0.13700  0.16200  0.60030  Biso   1.000  C
  H14      1.0000 0.08220  0.14990  0.59540  Biso   1.000  H
  C20      1.0000 0.16300  0.15450  0.55610  Biso   1.000  C
  C21      1.0000 0.24350  0.17950  0.56470  Biso   1.000  C
  H15      1.0000 0.26240  0.17780  0.53440  Biso   1.000  H
  C22      1.0000 0.29700  0.20700  0.61800  Biso   1.000  C
  H16      1.0000 0.35170  0.22180  0.62300  Biso   1.000  H
  C23      1.0000 0.62070  0.29670  0.85980  Biso   1.000  C
  C24      1.0000 0.71170  0.33080  0.87940  Biso   1.000  C
  C25      1.0000 0.76140  0.34430  0.93280  Biso   1.000  C
  H17      1.0000 0.73780  0.34370  0.96080  Biso   1.000  H
  C26      1.0000 0.84380  0.35890  0.94910  Biso   1.000  C
  H18      1.0000 0.87420  0.36420  0.98740  Biso   1.000  H
  C27      1.0000 0.88040  0.36540  0.91320  Biso   1.000  C
  C28      1.0000 0.83080  0.34940  0.85670  Biso   1.000  C
  H19      1.0000 0.85520  0.34760  0.82910  Biso   1.000  H
  C29      1.0000 0.75110  0.33700  0.84160  Biso   1.000  C
  H20      1.0000 0.72060  0.33230  0.80340  Biso   1.000  H
  C30      1.0000 0.10770  0.11960  0.49930  Biso   1.000  C
  C31      1.0000 0.02500  0.14040  0.48270  Biso   1.000  C
  H21      1.0000 0.00520  0.17560  0.50690  Biso   1.000  H
  C32      1.0000 0.97090  0.11030  0.43120  Biso   1.000  C
  C33      1.0000 0.00060  0.05730  0.39550  Biso   1.000  C
  H22      1.0000 0.96510  0.03530  0.36080  Biso   1.000  H
  C34      1.0000 0.08400  0.03750  0.41210  Biso   1.000  C
  H23      1.0000 0.10400  0.00320  0.38760  Biso   1.000  H
  C35      1.0000 0.13830  0.06710  0.46380  Biso   1.000  C
  H24      1.0000 0.19390  0.05210  0.47450  Biso   1.000  H
  C36      1.0000 0.44800  0.95600  0.77440  Biso   1.000  C
  H25      1.0000 0.43680  0.90470  0.74840  Biso   1.000  H
  C37      1.0000 0.43600  0.05300  0.76410  Biso   1.000  C
  H26      1.0000 0.41370  0.08180  0.72860  Biso   1.000  H
  C38      1.0000 0.26800  0.25900  0.65800  Biso   1.000  C
  C39      1.0000 0.18720  0.28450  0.64590  Biso   1.000  C
  H27      1.0000 0.16710  0.29700  0.67500  Biso   1.000  H
  C40      1.0000 0.13460  0.29170  0.58950  Biso   1.000  C
  H28      1.0000 0.07940  0.30570  0.58230  Biso   1.000  H
  C41      1.0000 0.16100  0.27900  0.54520  Biso   1.000  C
  C42      1.0000 0.24490  0.26240  0.55740  Biso   1.000  C
  H29      1.0000 0.26640  0.25700  0.52840  Biso   1.000  H
  C43      1.0000 0.29500  0.25400  0.61300  Biso   1.000  C
  H30      1.0000 0.35090  0.24430  0.62030  Biso   1.000  H
  C44      1.0000 0.71000  0.27100  0.87350  Biso   1.000  C
  C45      1.0000 0.75880  0.24850  0.92920  Biso   1.000  C
  H31      1.0000 0.73540  0.24810  0.95730  Biso   1.000  H
  C46      1.0000 0.84140  0.22710  0.94260  Biso   1.000  C
  H32      1.0000 0.87220  0.20680  0.97890  Biso   1.000  H
  C47      1.0000 0.87790  0.23600  0.90180  Biso   1.000  C
  C48      1.0000 0.83170  0.24570  0.84850  Biso   1.000  C
  H33      1.0000 0.85510  0.23920  0.82060  Biso   1.000  H
  C49      1.0000 0.74870  0.26500  0.83340  Biso   1.000  C
  H34      1.0000 0.71790  0.27500  0.79560  Biso   1.000  H
  C50      1.0000 0.10330  0.29210  0.48540  Biso   1.000  C
  C51      1.0000 0.02040  0.27580  0.47050  Biso   1.000  C
  H35      1.0000 0.99890  0.25550  0.49780  Biso   1.000  H
  C52      1.0000 0.96840  0.28920  0.41530  Biso   1.000  C
  C53      1.0000 0.99960  0.31970  0.37440  Biso   1.000  C
  H36      1.0000 0.96480  0.32910  0.33750  Biso   1.000  H
  C54      1.0000 0.08280  0.33630  0.38880  Biso   1.000  C
  H37      1.0000 0.10440  0.35680  0.36160  Biso   1.000  H
  C55      1.0000 0.13400  0.32200  0.44410  Biso   1.000  C
  H38      1.0000 0.19010  0.33280  0.45360  Biso   1.000  H
  Cd2      1.0000 0.54861  0.77461  0.67882  Biso   1.000  Cd
  N7       1.0000 0.55530  0.09930  0.65983  Biso   1.000  N
  N8       1.0000 0.56880  0.94250  0.68083  Biso   1.000  N
  N9       1.0000 0.42410  0.27440  0.48662  Biso   1.000  N
  C56      1.0000 0.34960  0.30960  0.40100  Biso   1.000  C
  H39      1.0000 0.30820  0.33600  0.37030  Biso   1.000  H
  N10      1.0000 0.53580  0.60580  0.68285  Biso   1.000  N
  N11      1.0000 0.51830  0.44960  0.66361  Biso   1.000  N
  O5       1.0000 0.70000  0.75230  0.74175  Biso   1.000  O
  O6       1.0000 0.60260  0.77090  0.77664  Biso   1.000  O
  O7       1.0000 0.41060  0.79820  0.60250  Biso   1.000  O
  O8       1.0000 0.41830  0.78720  0.68992  Biso   1.000  O
  C57      1.0000 0.52700  0.00890  0.64600  Biso   1.000  C
  H40      1.0000 0.48160  0.99470  0.61440  Biso   1.000  H
  C58      1.0000 0.62880  0.99140  0.71950  Biso   1.000  C
  H41      1.0000 0.66900  0.96360  0.75040  Biso   1.000  H
  C59      1.0000 0.62160  0.08810  0.70650  Biso   1.000  C
  H42      1.0000 0.65630  0.13760  0.72630  Biso   1.000  H
  C60      1.0000 0.35910  0.32660  0.45560  Biso   1.000  C
  H43      1.0000 0.32670  0.36690  0.46910  Biso   1.000  H
  N12      1.0000 0.40880  0.24850  0.39749  Biso   1.000  N
  C61      1.0000 0.45190  0.22980  0.44990  Biso   1.000  C
  H44      1.0000 0.49770  0.18920  0.46060  Biso   1.000  H
  C62      1.0000 0.52100  0.53890  0.64480  Biso   1.000  C
  H45      1.0000 0.51300  0.55250  0.60720  Biso   1.000  H
  C63      1.0000 0.50900  0.46370  0.71290  Biso   1.000  C
  H46      1.0000 0.49690  0.41610  0.73520  Biso   1.000  H
  C64      1.0000 0.52100  0.55900  0.72510  Biso   1.000  C
  H47      1.0000 0.51830  0.58840  0.75780  Biso   1.000  H
  C65      1.0000 0.52520  0.18880  0.63140  Biso   1.000  C
  C66      1.0000 0.48910  0.18730  0.57450  Biso   1.000  C
  H48      1.0000 0.48350  0.12890  0.55470  Biso   1.000  H
  C67      1.0000 0.46040  0.27410  0.54617  Biso   1.000  C
  C68      1.0000 0.46910  0.36120  0.57573  Biso   1.000  C
  H49      1.0000 0.44980  0.41940  0.55680  Biso   1.000  H
  C69      1.0000 0.50670  0.36030  0.63350  Biso   1.000  C
  C70      1.0000 0.53380  0.27390  0.66151  Biso   1.000  C
  H50      1.0000 0.55770  0.27320  0.70060  Biso   1.000  H
  C71      1.0000 0.67480  0.75370  0.78240  Biso   1.000  C
  C72      1.0000 0.73300  0.71200  0.83800  Biso   1.000  C
  C73      1.0000 0.80990  0.68700  0.84760  Biso   1.000  C
  H51      1.0000 0.82900  0.68610  0.81730  Biso   1.000  H
  C74      1.0000 0.86300  0.66200  0.89970  Biso   1.000  C
  H52      1.0000 0.91780  0.64990  0.90460  Biso   1.000  H
  C75      1.0000 0.83700  0.65450  0.94390  Biso   1.000  C
  C76      1.0000 0.75650  0.67950  0.93530  Biso   1.000  C
  H53      1.0000 0.73760  0.67780  0.96560  Biso   1.000  H
  C77      1.0000 0.70300  0.70700  0.88200  Biso   1.000  C
  H54      1.0000 0.64830  0.72180  0.87700  Biso   1.000  H
  C78      1.0000 0.37930  0.79670  0.64020  Biso   1.000  C
  C79      1.0000 0.28830  0.83080  0.62060  Biso   1.000  C
  C80      1.0000 0.23860  0.84430  0.56720  Biso   1.000  C
  H55      1.0000 0.26220  0.84370  0.53920  Biso   1.000  H
  C81      1.0000 0.15620  0.85890  0.55090  Biso   1.000  C
  H56      1.0000 0.12580  0.86420  0.51260  Biso   1.000  H
  C82      1.0000 0.11960  0.86540  0.58680  Biso   1.000  C
  C83      1.0000 0.16920  0.84940  0.64330  Biso   1.000  C
  H57      1.0000 0.14480  0.84760  0.67090  Biso   1.000  H
  C84      1.0000 0.24890  0.83700  0.65840  Biso   1.000  C
  H58      1.0000 0.27940  0.83230  0.69660  Biso   1.000  H
  C85      1.0000 0.89230  0.61960  0.00070  Biso   1.000  C
  C86      1.0000 0.97500  0.64040  0.01730  Biso   1.000  C
  H59      1.0000 0.99480  0.67560  0.99310  Biso   1.000  H
  C87      1.0000 0.02910  0.61030  0.06880  Biso   1.000  C
  C88      1.0000 0.99940  0.55730  0.10450  Biso   1.000  C
  H60      1.0000 0.03490  0.53530  0.13920  Biso   1.000  H
  C89      1.0000 0.91600  0.53750  0.08790  Biso   1.000  C
  H61      1.0000 0.89600  0.50320  0.11240  Biso   1.000  H
  C90      1.0000 0.86170  0.56710  0.03620  Biso   1.000  C
  H62      1.0000 0.80610  0.55210  0.02550  Biso   1.000  H
  C91      1.0000 0.55200  0.45600  0.72560  Biso   1.000  C
  H63      1.0000 0.56320  0.40470  0.75160  Biso   1.000  H
  C92      1.0000 0.56400  0.55300  0.73590  Biso   1.000  C
  H64      1.0000 0.58630  0.58180  0.77140  Biso   1.000  H
  C93      1.0000 0.73200  0.75900  0.84200  Biso   1.000  C
  C94      1.0000 0.81280  0.78450  0.85410  Biso   1.000  C
  H65      1.0000 0.83290  0.79700  0.82500  Biso   1.000  H
  C95      1.0000 0.86540  0.79170  0.91050  Biso   1.000  C
  H66      1.0000 0.92060  0.80570  0.91770  Biso   1.000  H
  C96      1.0000 0.83900  0.77900  0.95480  Biso   1.000  C
  C97      1.0000 0.75510  0.76240  0.94260  Biso   1.000  C
  H67      1.0000 0.73360  0.75700  0.97160  Biso   1.000  H
  C98      1.0000 0.70500  0.75400  0.88700  Biso   1.000  C
  H68      1.0000 0.64910  0.74430  0.87970  Biso   1.000  H
  C99      1.0000 0.29000  0.77100  0.62650  Biso   1.000  C
  C100     1.0000 0.24120  0.74850  0.57080  Biso   1.000  C
  H69      1.0000 0.26460  0.74810  0.54270  Biso   1.000  H
  C101     1.0000 0.15860  0.72710  0.55740  Biso   1.000  C
  H70      1.0000 0.12780  0.70680  0.52110  Biso   1.000  H
  C102     1.0000 0.12210  0.73600  0.59820  Biso   1.000  C
  C103     1.0000 0.16830  0.74570  0.65150  Biso   1.000  C
  H71      1.0000 0.14490  0.73920  0.67940  Biso   1.000  H
  C104     1.0000 0.25130  0.76500  0.66660  Biso   1.000  C
  H72      1.0000 0.28210  0.77500  0.70440  Biso   1.000  H
  C105     1.0000 0.89670  0.79210  0.01460  Biso   1.000  C
  C106     1.0000 0.97960  0.77580  0.02950  Biso   1.000  C
  H73      1.0000 0.00110  0.75550  0.00220  Biso   1.000  H
  C107     1.0000 0.03160  0.78920  0.08470  Biso   1.000  C
  C108     1.0000 0.00040  0.81970  0.12560  Biso   1.000  C
  H74      1.0000 0.03520  0.82910  0.16250  Biso   1.000  H
  C109     1.0000 0.91720  0.83630  0.11120  Biso   1.000  C
  H75      1.0000 0.89560  0.85680  0.13840  Biso   1.000  H
  C110     1.0000 0.86600  0.82200  0.05590  Biso   1.000  C
  H76      1.0000 0.80990  0.83280  0.04640  Biso   1.000  H
  Cd3      1.0000 0.54861  0.72539  0.17882  Biso   1.000  Cd
  N13      1.0000 0.55530  0.40070  0.15983  Biso   1.000  N
  N14      1.0000 0.56880  0.55750  0.18083  Biso   1.000  N
  N15      1.0000 0.42410  0.22560  0.98662  Biso   1.000  N
  C111     1.0000 0.34960  0.19040  0.90100  Biso   1.000  C
  H77      1.0000 0.30820  0.16400  0.87030  Biso   1.000  H
  N16      1.0000 0.53580  0.89420  0.18285  Biso   1.000  N
  N17      1.0000 0.51830  0.05040  0.16361  Biso   1.000  N
  O9       1.0000 0.70000  0.74770  0.24175  Biso   1.000  O
  O10      1.0000 0.60260  0.72910  0.27664  Biso   1.000  O
  O11      1.0000 0.41060  0.70180  0.10250  Biso   1.000  O
  O12      1.0000 0.41830  0.71280  0.18992  Biso   1.000  O
  C112     1.0000 0.52700  0.49110  0.14600  Biso   1.000  C
  H78      1.0000 0.48160  0.50530  0.11440  Biso   1.000  H
  C113     1.0000 0.62880  0.50860  0.21950  Biso   1.000  C
  H79      1.0000 0.66900  0.53640  0.25040  Biso   1.000  H
  C114     1.0000 0.62160  0.41190  0.20650  Biso   1.000  C
  H80      1.0000 0.65630  0.36240  0.22630  Biso   1.000  H
  C115     1.0000 0.35910  0.17340  0.95560  Biso   1.000  C
  H81      1.0000 0.32670  0.13310  0.96910  Biso   1.000  H
  N18      1.0000 0.40880  0.25150  0.89749  Biso   1.000  N
  C116     1.0000 0.45190  0.27020  0.94990  Biso   1.000  C
  H82      1.0000 0.49770  0.31080  0.96060  Biso   1.000  H
  C117     1.0000 0.52100  0.96110  0.14480  Biso   1.000  C
  H83      1.0000 0.51300  0.94750  0.10720  Biso   1.000  H
  C118     1.0000 0.50900  0.03630  0.21290  Biso   1.000  C
  H84      1.0000 0.49690  0.08390  0.23520  Biso   1.000  H
  C119     1.0000 0.52100  0.94100  0.22510  Biso   1.000  C
  H85      1.0000 0.51830  0.91160  0.25780  Biso   1.000  H
  C120     1.0000 0.52520  0.31120  0.13140  Biso   1.000  C
  C121     1.0000 0.48910  0.31270  0.07450  Biso   1.000  C
  H86      1.0000 0.48350  0.37110  0.05470  Biso   1.000  H
  C122     1.0000 0.46040  0.22590  0.04617  Biso   1.000  C
  C123     1.0000 0.46910  0.13880  0.07573  Biso   1.000  C
  H87      1.0000 0.44980  0.08060  0.05680  Biso   1.000  H
  C124     1.0000 0.50670  0.13970  0.13350  Biso   1.000  C
  C125     1.0000 0.53380  0.22610  0.16151  Biso   1.000  C
  H88      1.0000 0.55770  0.22680  0.20060  Biso   1.000  H
  C126     1.0000 0.67480  0.74630  0.28240  Biso   1.000  C
  C127     1.0000 0.73300  0.78800  0.33800  Biso   1.000  C
  C128     1.0000 0.80990  0.81300  0.34760  Biso   1.000  C
  H89      1.0000 0.82900  0.81390  0.31730  Biso   1.000  H
  C129     1.0000 0.86300  0.83800  0.39970  Biso   1.000  C
  H90      1.0000 0.91780  0.85010  0.40460  Biso   1.000  H
  C130     1.0000 0.83700  0.84550  0.44390  Biso   1.000  C
  C131     1.0000 0.75650  0.82050  0.43530  Biso   1.000  C
  H91      1.0000 0.73760  0.82220  0.46560  Biso   1.000  H
  C132     1.0000 0.70300  0.79300  0.38200  Biso   1.000  C
  H92      1.0000 0.64830  0.77820  0.37700  Biso   1.000  H
  C133     1.0000 0.37930  0.70330  0.14020  Biso   1.000  C
  C134     1.0000 0.28830  0.66920  0.12060  Biso   1.000  C
  C135     1.0000 0.23860  0.65570  0.06720  Biso   1.000  C
  H93      1.0000 0.26220  0.65630  0.03920  Biso   1.000  H
  C136     1.0000 0.15620  0.64110  0.05090  Biso   1.000  C
  H94      1.0000 0.12580  0.63580  0.01260  Biso   1.000  H
  C137     1.0000 0.11960  0.63460  0.08680  Biso   1.000  C
  C138     1.0000 0.16920  0.65060  0.14330  Biso   1.000  C
  H95      1.0000 0.14480  0.65240  0.17090  Biso   1.000  H
  C139     1.0000 0.24890  0.66300  0.15840  Biso   1.000  C
  H96      1.0000 0.27940  0.66770  0.19660  Biso   1.000  H
  C140     1.0000 0.89230  0.88040  0.50070  Biso   1.000  C
  C141     1.0000 0.97500  0.85960  0.51730  Biso   1.000  C
  H97      1.0000 0.99480  0.82440  0.49310  Biso   1.000  H
  C142     1.0000 0.02910  0.88970  0.56880  Biso   1.000  C
  C143     1.0000 0.99940  0.94270  0.60450  Biso   1.000  C
  H98      1.0000 0.03490  0.96470  0.63920  Biso   1.000  H
  C144     1.0000 0.91600  0.96250  0.58790  Biso   1.000  C
  H99      1.0000 0.89600  0.99680  0.61240  Biso   1.000  H
  C145     1.0000 0.86170  0.93290  0.53620  Biso   1.000  C
  H100     1.0000 0.80610  0.94790  0.52550  Biso   1.000  H
  C146     1.0000 0.55200  0.04400  0.22560  Biso   1.000  C
  H101     1.0000 0.56320  0.09530  0.25160  Biso   1.000  H
  C147     1.0000 0.56400  0.94700  0.23590  Biso   1.000  C
  H102     1.0000 0.58630  0.91820  0.27140  Biso   1.000  H
  C148     1.0000 0.73200  0.74100  0.34200  Biso   1.000  C
  C149     1.0000 0.81280  0.71550  0.35410  Biso   1.000  C
  H103     1.0000 0.83290  0.70300  0.32500  Biso   1.000  H
  C150     1.0000 0.86540  0.70830  0.41050  Biso   1.000  C
  H104     1.0000 0.92060  0.69430  0.41770  Biso   1.000  H
  C151     1.0000 0.83900  0.72100  0.45480  Biso   1.000  C
  C152     1.0000 0.75510  0.73760  0.44260  Biso   1.000  C
  H105     1.0000 0.73360  0.74300  0.47160  Biso   1.000  H
  C153     1.0000 0.70500  0.74600  0.38700  Biso   1.000  C
  H106     1.0000 0.64910  0.75570  0.37970  Biso   1.000  H
  C154     1.0000 0.29000  0.72900  0.12650  Biso   1.000  C
  C155     1.0000 0.24120  0.75150  0.07080  Biso   1.000  C
  H107     1.0000 0.26460  0.75190  0.04270  Biso   1.000  H
  C156     1.0000 0.15860  0.77290  0.05740  Biso   1.000  C
  H108     1.0000 0.12780  0.79320  0.02110  Biso   1.000  H
  C157     1.0000 0.12210  0.76400  0.09820  Biso   1.000  C
  C158     1.0000 0.16830  0.75430  0.15150  Biso   1.000  C
  H109     1.0000 0.14490  0.76080  0.17940  Biso   1.000  H
  C159     1.0000 0.25130  0.73500  0.16660  Biso   1.000  C
  H110     1.0000 0.28210  0.72500  0.20440  Biso   1.000  H
  C160     1.0000 0.89670  0.70790  0.51460  Biso   1.000  C
  C161     1.0000 0.97960  0.72420  0.52950  Biso   1.000  C
  H111     1.0000 0.00110  0.74450  0.50220  Biso   1.000  H
  C162     1.0000 0.03160  0.71080  0.58470  Biso   1.000  C
  C163     1.0000 0.00040  0.68030  0.62560  Biso   1.000  C
  H112     1.0000 0.03520  0.67090  0.66250  Biso   1.000  H
  C164     1.0000 0.91720  0.66370  0.61120  Biso   1.000  C
  H113     1.0000 0.89560  0.64320  0.63840  Biso   1.000  H
  C165     1.0000 0.86600  0.67800  0.55590  Biso   1.000  C
  H114     1.0000 0.80990  0.66720  0.54640  Biso   1.000  H
  Cd4      1.0000 0.45139  0.22539  0.32118  Biso   1.000  Cd
  N19      1.0000 0.44470  0.90070  0.34017  Biso   1.000  N
  N20      1.0000 0.43120  0.05750  0.31917  Biso   1.000  N
  N21      1.0000 0.57590  0.72560  0.51338  Biso   1.000  N
  C166     1.0000 0.65040  0.69040  0.59900  Biso   1.000  C
  H115     1.0000 0.69180  0.66400  0.62970  Biso   1.000  H
  N22      1.0000 0.46420  0.39420  0.31715  Biso   1.000  N
  N23      1.0000 0.48170  0.55040  0.33639  Biso   1.000  N
  O13      1.0000 0.30000  0.24770  0.25825  Biso   1.000  O
  O14      1.0000 0.39740  0.22910  0.22336  Biso   1.000  O
  O15      1.0000 0.58940  0.20180  0.39750  Biso   1.000  O
  O16      1.0000 0.58170  0.21280  0.31008  Biso   1.000  O
  C167     1.0000 0.47300  0.99110  0.35400  Biso   1.000  C
  H116     1.0000 0.51840  0.00530  0.38560  Biso   1.000  H
  C168     1.0000 0.37120  0.00860  0.28050  Biso   1.000  C
  H117     1.0000 0.33100  0.03640  0.24960  Biso   1.000  H
  C169     1.0000 0.37840  0.91190  0.29350  Biso   1.000  C
  H118     1.0000 0.34370  0.86240  0.27370  Biso   1.000  H
  C170     1.0000 0.64090  0.67340  0.54440  Biso   1.000  C
  H119     1.0000 0.67330  0.63310  0.53090  Biso   1.000  H
  N24      1.0000 0.59120  0.75150  0.60251  Biso   1.000  N
  C171     1.0000 0.54810  0.77020  0.55010  Biso   1.000  C
  H120     1.0000 0.50230  0.81080  0.53940  Biso   1.000  H
  C172     1.0000 0.47900  0.46110  0.35520  Biso   1.000  C
  H121     1.0000 0.48700  0.44750  0.39280  Biso   1.000  H
  C173     1.0000 0.49100  0.53630  0.28710  Biso   1.000  C
  H122     1.0000 0.50310  0.58390  0.26480  Biso   1.000  H
  C174     1.0000 0.47900  0.44100  0.27490  Biso   1.000  C
  H123     1.0000 0.48170  0.41160  0.24220  Biso   1.000  H
  C175     1.0000 0.47480  0.81120  0.36860  Biso   1.000  C
  C176     1.0000 0.51090  0.81270  0.42550  Biso   1.000  C
  H124     1.0000 0.51650  0.87110  0.44530  Biso   1.000  H
  C177     1.0000 0.53960  0.72590  0.45383  Biso   1.000  C
  C178     1.0000 0.53090  0.63880  0.42427  Biso   1.000  C
  H125     1.0000 0.55020  0.58060  0.44320  Biso   1.000  H
  C179     1.0000 0.49330  0.63970  0.36650  Biso   1.000  C
  C180     1.0000 0.46620  0.72610  0.33849  Biso   1.000  C
  H126     1.0000 0.44230  0.72680  0.29940  Biso   1.000  H
  C181     1.0000 0.32520  0.24630  0.21760  Biso   1.000  C
  C182     1.0000 0.26700  0.28800  0.16200  Biso   1.000  C
  C183     1.0000 0.19010  0.31300  0.15240  Biso   1.000  C
  H127     1.0000 0.17100  0.31390  0.18270  Biso   1.000  H
  C184     1.0000 0.13700  0.33800  0.10030  Biso   1.000  C
  H128     1.0000 0.08220  0.35010  0.09540  Biso   1.000  H
  C185     1.0000 0.16300  0.34550  0.05610  Biso   1.000  C
  C186     1.0000 0.24350  0.32050  0.06470  Biso   1.000  C
  H129     1.0000 0.26240  0.32220  0.03440  Biso   1.000  H
  C187     1.0000 0.29700  0.29300  0.11800  Biso   1.000  C
  H130     1.0000 0.35170  0.27820  0.12300  Biso   1.000  H
  C188     1.0000 0.62070  0.20330  0.35980  Biso   1.000  C
  C189     1.0000 0.71170  0.16920  0.37940  Biso   1.000  C
  C190     1.0000 0.76140  0.15570  0.43280  Biso   1.000  C
  H131     1.0000 0.73780  0.15630  0.46080  Biso   1.000  H
  C191     1.0000 0.84380  0.14110  0.44910  Biso   1.000  C
  H132     1.0000 0.87420  0.13580  0.48740  Biso   1.000  H
  C192     1.0000 0.88040  0.13460  0.41320  Biso   1.000  C
  C193     1.0000 0.83080  0.15060  0.35670  Biso   1.000  C
  H133     1.0000 0.85520  0.15240  0.32910  Biso   1.000  H
  C194     1.0000 0.75110  0.16300  0.34160  Biso   1.000  C
  H134     1.0000 0.72060  0.16770  0.30340  Biso   1.000  H
  C195     1.0000 0.10770  0.38040  0.99930  Biso   1.000  C
  C196     1.0000 0.02500  0.35960  0.98270  Biso   1.000  C
  H135     1.0000 0.00520  0.32440  0.00690  Biso   1.000  H
  C197     1.0000 0.97090  0.38970  0.93120  Biso   1.000  C
  C198     1.0000 0.00060  0.44270  0.89550  Biso   1.000  C
  H136     1.0000 0.96510  0.46470  0.86080  Biso   1.000  H
  C199     1.0000 0.08400  0.46250  0.91210  Biso   1.000  C
  H137     1.0000 0.10400  0.49680  0.88760  Biso   1.000  H
  C200     1.0000 0.13830  0.43290  0.96380  Biso   1.000  C
  H138     1.0000 0.19390  0.44790  0.97450  Biso   1.000  H
  C201     1.0000 0.44800  0.54400  0.27440  Biso   1.000  C
  H139     1.0000 0.43680  0.59530  0.24840  Biso   1.000  H
  C202     1.0000 0.43600  0.44700  0.26410  Biso   1.000  C
  H140     1.0000 0.41370  0.41820  0.22860  Biso   1.000  H
  C203     1.0000 0.26800  0.24100  0.15800  Biso   1.000  C
  C204     1.0000 0.18720  0.21550  0.14590  Biso   1.000  C
  H141     1.0000 0.16710  0.20300  0.17500  Biso   1.000  H
  C205     1.0000 0.13460  0.20830  0.08950  Biso   1.000  C
  H142     1.0000 0.07940  0.19430  0.08230  Biso   1.000  H
  C206     1.0000 0.16100  0.22100  0.04520  Biso   1.000  C
  C207     1.0000 0.24490  0.23760  0.05740  Biso   1.000  C
  H143     1.0000 0.26640  0.24300  0.02840  Biso   1.000  H
  C208     1.0000 0.29500  0.24600  0.11300  Biso   1.000  C
  H144     1.0000 0.35090  0.25570  0.12030  Biso   1.000  H
  C209     1.0000 0.71000  0.22900  0.37350  Biso   1.000  C
  C210     1.0000 0.75880  0.25150  0.42920  Biso   1.000  C
  H145     1.0000 0.73540  0.25190  0.45730  Biso   1.000  H
  C211     1.0000 0.84140  0.27290  0.44260  Biso   1.000  C
  H146     1.0000 0.87220  0.29320  0.47890  Biso   1.000  H
  C212     1.0000 0.87790  0.26400  0.40180  Biso   1.000  C
  C213     1.0000 0.83170  0.25430  0.34850  Biso   1.000  C
  H147     1.0000 0.85510  0.26080  0.32060  Biso   1.000  H
  C214     1.0000 0.74870  0.23500  0.33340  Biso   1.000  C
  H148     1.0000 0.71790  0.22500  0.29560  Biso   1.000  H
  C215     1.0000 0.10330  0.20790  0.98540  Biso   1.000  C
  C216     1.0000 0.02040  0.22420  0.97050  Biso   1.000  C
  H149     1.0000 0.99890  0.24450  0.99780  Biso   1.000  H
  C217     1.0000 0.96840  0.21080  0.91530  Biso   1.000  C
  C218     1.0000 0.99960  0.18030  0.87440  Biso   1.000  C
  H150     1.0000 0.96480  0.17090  0.83750  Biso   1.000  H
  C219     1.0000 0.08280  0.16370  0.88880  Biso   1.000  C
  H151     1.0000 0.10440  0.14320  0.86160  Biso   1.000  H
  C220     1.0000 0.13400  0.17800  0.94410  Biso   1.000  C
  H152     1.0000 0.19010  0.16720  0.95360  Biso   1.000  H
