data_image0
_cell_length_a       14.5649
_cell_length_b       14.1256
_cell_length_c       15.1659
_cell_angle_alpha    90
_cell_angle_beta     103.328
_cell_angle_gamma    90

_symmetry_space_group_name_H-M    "P 1"
_symmetry_int_tables_number       1

loop_
  _symmetry_equiv_pos_as_xyz
  'x, y, z'

loop_
  _atom_site_label
  _atom_site_occupancy
  _atom_site_fract_x
  _atom_site_fract_y
  _atom_site_fract_z
  _atom_site_thermal_displace_type
  _atom_site_B_iso_or_equiv
  _atom_site_type_symbol
  Co1      1.0000 0.75372  0.51117  0.51786  Biso   1.000  Co
  O1       1.0000 0.66014  0.60585  0.53034  Biso   1.000  O
  O2       1.0000 0.74190  0.74068  0.54361  Biso   1.000  O
  O3       1.0000 0.33349  0.59450  0.49447  Biso   1.000  O
  O4       1.0000 0.24627  0.71524  0.52272  Biso   1.000  O
  O5       1.0000 0.56854  0.02658  0.60621  Biso   1.000  O
  O6       1.0000 0.42878  0.01181  0.63029  Biso   1.000  O
  O7       1.0000 0.82411  0.44985  0.73343  Biso   1.000  O
  O8       1.0000 0.86833  0.50535  0.61304  Biso   1.000  O
  O9       1.0000 0.17983  0.47321  0.57906  Biso   1.000  O
  O10      1.0000 0.30236  0.45311  0.69541  Biso   1.000  O
  O11      1.0000 0.23085  0.48046  0.99917  Biso   1.000  O
  O12      1.0000 0.09155  0.43708  0.01229  Biso   1.000  O
  C1       1.0000 0.57979  0.74476  0.54788  Biso   1.000  C
  C2       1.0000 0.49535  0.69537  0.53136  Biso   1.000  C
  H1       1.0000 0.49510  0.63180  0.51520  Biso   1.000  H
  C3       1.0000 0.41091  0.73749  0.53803  Biso   1.000  C
  C4       1.0000 0.41140  0.83207  0.56343  Biso   1.000  C
  H2       1.0000 0.35620  0.86210  0.56900  Biso   1.000  H
  C5       1.0000 0.49627  0.88014  0.58014  Biso   1.000  C
  C6       1.0000 0.57921  0.83907  0.57086  Biso   1.000  C
  H3       1.0000 0.63430  0.87460  0.58000  Biso   1.000  H
  C7       1.0000 0.66949  0.69510  0.54006  Biso   1.000  C
  C8       1.0000 0.32144  0.67976  0.51691  Biso   1.000  C
  C9       1.0000 0.98742  0.46731  0.73825  Biso   1.000  C
  C10      1.0000 0.05340  0.46911  0.68508  Biso   1.000  C
  H4       1.0000 0.03270  0.47380  0.62250  Biso   1.000  H
  C11      1.0000 0.14861  0.46415  0.72298  Biso   1.000  C
  C12      1.0000 0.18035  0.46201  0.81560  Biso   1.000  C
  H5       1.0000 0.24460  0.46140  0.84240  Biso   1.000  H
  C13      1.0000 0.11401  0.46084  0.86802  Biso   1.000  C
  C14      1.0000 0.01782  0.46224  0.83140  Biso   1.000  C
  H6       1.0000 0.97500  0.45980  0.86830  Biso   1.000  H
  C15      1.0000 0.88218  0.47461  0.69143  Biso   1.000  C
  C16      1.0000 0.21963  0.46267  0.66144  Biso   1.000  C
  N1       1.0000 0.49729  0.97974  0.60748  Biso   1.000  N
  N2       1.0000 0.14845  0.45982  0.96728  Biso   1.000  N
  Co2      1.0000 0.24628  0.48883  0.48214  Biso   1.000  Co
  O13      1.0000 0.33986  0.39415  0.46966  Biso   1.000  O
  O14      1.0000 0.25810  0.25932  0.45639  Biso   1.000  O
  O15      1.0000 0.66651  0.40550  0.50553  Biso   1.000  O
  O16      1.0000 0.75373  0.28476  0.47728  Biso   1.000  O
  O17      1.0000 0.43146  0.97342  0.39379  Biso   1.000  O
  O18      1.0000 0.57122  0.98819  0.36971  Biso   1.000  O
  O19      1.0000 0.17589  0.55015  0.26657  Biso   1.000  O
  O20      1.0000 0.13167  0.49465  0.38696  Biso   1.000  O
  O21      1.0000 0.82017  0.52679  0.42094  Biso   1.000  O
  O22      1.0000 0.69764  0.54689  0.30459  Biso   1.000  O
  O23      1.0000 0.76915  0.51954  0.00083  Biso   1.000  O
  O24      1.0000 0.90845  0.56292  0.98771  Biso   1.000  O
  C17      1.0000 0.42021  0.25524  0.45212  Biso   1.000  C
  C18      1.0000 0.50465  0.30463  0.46864  Biso   1.000  C
  H7       1.0000 0.50490  0.36820  0.48480  Biso   1.000  H
  C19      1.0000 0.58909  0.26251  0.46197  Biso   1.000  C
  C20      1.0000 0.58860  0.16793  0.43657  Biso   1.000  C
  H8       1.0000 0.64380  0.13790  0.43100  Biso   1.000  H
  C21      1.0000 0.50373  0.11986  0.41986  Biso   1.000  C
  C22      1.0000 0.42079  0.16093  0.42914  Biso   1.000  C
  H9       1.0000 0.36570  0.12540  0.42000  Biso   1.000  H
  C23      1.0000 0.33051  0.30490  0.45994  Biso   1.000  C
  C24      1.0000 0.67856  0.32024  0.48309  Biso   1.000  C
  C25      1.0000 0.01258  0.53269  0.26175  Biso   1.000  C
  C26      1.0000 0.94660  0.53089  0.31492  Biso   1.000  C
  H10      1.0000 0.96730  0.52620  0.37750  Biso   1.000  H
  C27      1.0000 0.85139  0.53585  0.27702  Biso   1.000  C
  C28      1.0000 0.81965  0.53799  0.18440  Biso   1.000  C
  H11      1.0000 0.75540  0.53860  0.15760  Biso   1.000  H
  C29      1.0000 0.88599  0.53916  0.13198  Biso   1.000  C
  C30      1.0000 0.98218  0.53776  0.16860  Biso   1.000  C
  H12      1.0000 0.02500  0.54020  0.13170  Biso   1.000  H
  C31      1.0000 0.11782  0.52539  0.30857  Biso   1.000  C
  C32      1.0000 0.78037  0.53733  0.33856  Biso   1.000  C
  N3       1.0000 0.50271  0.02026  0.39252  Biso   1.000  N
  N4       1.0000 0.85155  0.54018  0.03272  Biso   1.000  N
  Co3      1.0000 0.24628  0.01117  0.98214  Biso   1.000  Co
  O25      1.0000 0.33986  0.10585  0.96966  Biso   1.000  O
  O26      1.0000 0.25810  0.24068  0.95639  Biso   1.000  O
  O27      1.0000 0.66651  0.09450  0.00553  Biso   1.000  O
  O28      1.0000 0.75373  0.21524  0.97728  Biso   1.000  O
  O29      1.0000 0.43146  0.52658  0.89379  Biso   1.000  O
  O30      1.0000 0.57122  0.51181  0.86971  Biso   1.000  O
  O31      1.0000 0.17589  0.94985  0.76657  Biso   1.000  O
  O32      1.0000 0.13167  0.00535  0.88696  Biso   1.000  O
  O33      1.0000 0.82017  0.97321  0.92094  Biso   1.000  O
  O34      1.0000 0.69764  0.95311  0.80459  Biso   1.000  O
  O35      1.0000 0.76915  0.98046  0.50083  Biso   1.000  O
  O36      1.0000 0.90845  0.93708  0.48771  Biso   1.000  O
  C33      1.0000 0.42021  0.24476  0.95212  Biso   1.000  C
  C34      1.0000 0.50465  0.19537  0.96864  Biso   1.000  C
  H13      1.0000 0.50490  0.13180  0.98480  Biso   1.000  H
  C35      1.0000 0.58909  0.23749  0.96197  Biso   1.000  C
  C36      1.0000 0.58860  0.33207  0.93657  Biso   1.000  C
  H14      1.0000 0.64380  0.36210  0.93100  Biso   1.000  H
  C37      1.0000 0.50373  0.38014  0.91986  Biso   1.000  C
  C38      1.0000 0.42079  0.33907  0.92914  Biso   1.000  C
  H15      1.0000 0.36570  0.37460  0.92000  Biso   1.000  H
  C39      1.0000 0.33051  0.19510  0.95994  Biso   1.000  C
  C40      1.0000 0.67856  0.17976  0.98309  Biso   1.000  C
  C41      1.0000 0.01258  0.96731  0.76175  Biso   1.000  C
  C42      1.0000 0.94660  0.96911  0.81492  Biso   1.000  C
  H16      1.0000 0.96730  0.97380  0.87750  Biso   1.000  H
  C43      1.0000 0.85139  0.96415  0.77702  Biso   1.000  C
  C44      1.0000 0.81965  0.96201  0.68440  Biso   1.000  C
  H17      1.0000 0.75540  0.96140  0.65760  Biso   1.000  H
  C45      1.0000 0.88599  0.96084  0.63198  Biso   1.000  C
  C46      1.0000 0.98218  0.96224  0.66860  Biso   1.000  C
  H18      1.0000 0.02500  0.95980  0.63170  Biso   1.000  H
  C47      1.0000 0.11782  0.97461  0.80857  Biso   1.000  C
  C48      1.0000 0.78037  0.96267  0.83856  Biso   1.000  C
  N5       1.0000 0.50271  0.47974  0.89252  Biso   1.000  N
  N6       1.0000 0.85155  0.95982  0.53272  Biso   1.000  N
  Co4      1.0000 0.75372  0.98883  0.01786  Biso   1.000  Co
  O37      1.0000 0.66014  0.89415  0.03034  Biso   1.000  O
  O38      1.0000 0.74190  0.75932  0.04361  Biso   1.000  O
  O39      1.0000 0.33349  0.90550  0.99447  Biso   1.000  O
  O40      1.0000 0.24627  0.78476  0.02272  Biso   1.000  O
  O41      1.0000 0.56854  0.47342  0.10621  Biso   1.000  O
  O42      1.0000 0.42878  0.48819  0.13029  Biso   1.000  O
  O43      1.0000 0.82411  0.05015  0.23343  Biso   1.000  O
  O44      1.0000 0.86833  0.99465  0.11304  Biso   1.000  O
  O45      1.0000 0.17983  0.02679  0.07906  Biso   1.000  O
  O46      1.0000 0.30236  0.04689  0.19541  Biso   1.000  O
  O47      1.0000 0.23085  0.01954  0.49917  Biso   1.000  O
  O48      1.0000 0.09155  0.06292  0.51229  Biso   1.000  O
  C49      1.0000 0.57979  0.75524  0.04788  Biso   1.000  C
  C50      1.0000 0.49535  0.80463  0.03136  Biso   1.000  C
  H19      1.0000 0.49510  0.86820  0.01520  Biso   1.000  H
  C51      1.0000 0.41091  0.76251  0.03803  Biso   1.000  C
  C52      1.0000 0.41140  0.66793  0.06343  Biso   1.000  C
  H20      1.0000 0.35620  0.63790  0.06900  Biso   1.000  H
  C53      1.0000 0.49627  0.61986  0.08014  Biso   1.000  C
  C54      1.0000 0.57921  0.66093  0.07086  Biso   1.000  C
  H21      1.0000 0.63430  0.62540  0.08000  Biso   1.000  H
  C55      1.0000 0.66949  0.80490  0.04006  Biso   1.000  C
  C56      1.0000 0.32144  0.82024  0.01691  Biso   1.000  C
  C57      1.0000 0.98742  0.03269  0.23825  Biso   1.000  C
  C58      1.0000 0.05340  0.03089  0.18508  Biso   1.000  C
  H22      1.0000 0.03270  0.02620  0.12250  Biso   1.000  H
  C59      1.0000 0.14861  0.03585  0.22298  Biso   1.000  C
  C60      1.0000 0.18035  0.03799  0.31560  Biso   1.000  C
  H23      1.0000 0.24460  0.03860  0.34240  Biso   1.000  H
  C61      1.0000 0.11401  0.03916  0.36802  Biso   1.000  C
  C62      1.0000 0.01782  0.03776  0.33140  Biso   1.000  C
  H24      1.0000 0.97500  0.04020  0.36830  Biso   1.000  H
  C63      1.0000 0.88218  0.02539  0.19143  Biso   1.000  C
  C64      1.0000 0.21963  0.03733  0.16144  Biso   1.000  C
  N7       1.0000 0.49729  0.52026  0.10748  Biso   1.000  N
  N8       1.0000 0.14845  0.04018  0.46728  Biso   1.000  N
