data_image0
_cell_length_a       9.135
_cell_length_b       11.0789
_cell_length_c       11.9804
_cell_angle_alpha    92.071
_cell_angle_beta     94.009
_cell_angle_gamma    112.747

_symmetry_space_group_name_H-M    "P 1"
_symmetry_int_tables_number       1

loop_
  _symmetry_equiv_pos_as_xyz
  'x, y, z'

loop_
  _atom_site_label
  _atom_site_occupancy
  _atom_site_fract_x
  _atom_site_fract_y
  _atom_site_fract_z
  _atom_site_thermal_displace_type
  _atom_site_B_iso_or_equiv
  _atom_site_type_symbol
  Cu1      1.0000 0.31919  0.29834  0.36197  Biso   1.000  Cu
  S1       1.0000 0.39886  0.86394  0.16852  Biso   1.000  S
  S2       1.0000 0.62584  0.95404  0.12817  Biso   1.000  S
  O1       1.0000 0.19520  0.72950  0.64440  Biso   1.000  O
  O2       1.0000 0.01890  0.79808  0.71341  Biso   1.000  O
  C1       1.0000 0.12700  0.80680  0.65292  Biso   1.000  C
  C2       1.0000 0.18130  0.92440  0.58044  Biso   1.000  C
  C3       1.0000 0.15480  0.03680  0.60879  Biso   1.000  C
  H1       1.0000 0.10610  0.04260  0.67330  Biso   1.000  H
  C4       1.0000 0.20200  0.13964  0.53954  Biso   1.000  C
  N1       1.0000 0.26850  0.13420  0.44387  Biso   1.000  N
  N2       1.0000 0.34960  0.47150  0.29977  Biso   1.000  N
  C5       1.0000 0.48830  0.55090  0.26600  Biso   1.000  C
  H2       1.0000 0.57250  0.52330  0.26970  Biso   1.000  H
  C6       1.0000 0.51350  0.67200  0.22560  Biso   1.000  C
  H3       1.0000 0.61190  0.72420  0.20240  Biso   1.000  H
  C7       1.0000 0.38910  0.71360  0.22064  Biso   1.000  C
  C8       1.0000 0.37350  0.11700  0.00620  Biso   1.000  C
  C9       1.0000 0.50470  0.21240  0.06608  Biso   1.000  C
  H4       1.0000 0.60350  0.24410  0.03730  Biso   1.000  H
  C10      1.0000 0.48470  0.25960  0.17049  Biso   1.000  C
  H5       1.0000 0.57280  0.32350  0.21110  Biso   1.000  H
  N3       1.0000 0.34550  0.21794  0.21549  Biso   1.000  N
  C11      1.0000 0.29530  0.02680  0.41730  Biso   1.000  C
  H6       1.0000 0.34290  0.02290  0.35200  Biso   1.000  H
  C12      1.0000 0.25450  0.92100  0.48390  Biso   1.000  C
  H7       1.0000 0.27620  0.84820  0.46380  Biso   1.000  H
  O3       1.0000 0.24640  0.35655  0.49691  Biso   1.000  O
  C13      1.0000 0.18530  0.26850  0.56471  Biso   1.000  C
  O4       1.0000 0.11950  0.28213  0.64761  Biso   1.000  O
  C14      1.0000 0.22960  0.51250  0.29470  Biso   1.000  C
  H8       1.0000 0.13230  0.45810  0.31810  Biso   1.000  H
  C15      1.0000 0.24430  0.63240  0.25600  Biso   1.000  C
  H9       1.0000 0.15860  0.65810  0.25380  Biso   1.000  H
  C16      1.0000 0.21990  0.12390  0.15740  Biso   1.000  C
  H10      1.0000 0.12250  0.09340  0.18830  Biso   1.000  H
  C17      1.0000 0.22930  0.07050  0.05319  Biso   1.000  C
  H11      1.0000 0.14030  0.00460  0.01540  Biso   1.000  H
  Cu2      1.0000 0.68081  0.70166  0.63803  Biso   1.000  Cu
  S3       1.0000 0.60114  0.13606  0.83148  Biso   1.000  S
  S4       1.0000 0.37416  0.04596  0.87183  Biso   1.000  S
  O5       1.0000 0.80480  0.27050  0.35560  Biso   1.000  O
  O6       1.0000 0.98110  0.20192  0.28659  Biso   1.000  O
  C18      1.0000 0.87300  0.19320  0.34708  Biso   1.000  C
  C19      1.0000 0.81870  0.07560  0.41956  Biso   1.000  C
  C20      1.0000 0.84520  0.96320  0.39121  Biso   1.000  C
  H12      1.0000 0.89390  0.95740  0.32670  Biso   1.000  H
  C21      1.0000 0.79800  0.86036  0.46046  Biso   1.000  C
  N4       1.0000 0.73150  0.86580  0.55613  Biso   1.000  N
  N5       1.0000 0.65040  0.52850  0.70023  Biso   1.000  N
  C22      1.0000 0.51170  0.44910  0.73400  Biso   1.000  C
  H13      1.0000 0.42750  0.47670  0.73030  Biso   1.000  H
  C23      1.0000 0.48650  0.32800  0.77440  Biso   1.000  C
  H14      1.0000 0.38810  0.27580  0.79760  Biso   1.000  H
  C24      1.0000 0.61090  0.28640  0.77936  Biso   1.000  C
  C25      1.0000 0.62650  0.88300  0.99380  Biso   1.000  C
  C26      1.0000 0.49530  0.78760  0.93392  Biso   1.000  C
  H15      1.0000 0.39650  0.75590  0.96270  Biso   1.000  H
  C27      1.0000 0.51530  0.74040  0.82951  Biso   1.000  C
  H16      1.0000 0.42720  0.67650  0.78890  Biso   1.000  H
  N6       1.0000 0.65450  0.78206  0.78451  Biso   1.000  N
  C28      1.0000 0.70470  0.97320  0.58270  Biso   1.000  C
  H17      1.0000 0.65710  0.97710  0.64800  Biso   1.000  H
  C29      1.0000 0.74550  0.07900  0.51610  Biso   1.000  C
  H18      1.0000 0.72380  0.15180  0.53620  Biso   1.000  H
  O7       1.0000 0.75360  0.64345  0.50309  Biso   1.000  O
  C30      1.0000 0.81470  0.73150  0.43529  Biso   1.000  C
  O8       1.0000 0.88050  0.71787  0.35239  Biso   1.000  O
  C31      1.0000 0.77040  0.48750  0.70530  Biso   1.000  C
  H19      1.0000 0.86770  0.54190  0.68190  Biso   1.000  H
  C32      1.0000 0.75570  0.36760  0.74400  Biso   1.000  C
  H20      1.0000 0.84140  0.34190  0.74620  Biso   1.000  H
  C33      1.0000 0.78010  0.87610  0.84260  Biso   1.000  C
  H21      1.0000 0.87750  0.90660  0.81170  Biso   1.000  H
  C34      1.0000 0.77070  0.92950  0.94681  Biso   1.000  C
  H22      1.0000 0.85970  0.99540  0.98460  Biso   1.000  H
