data_image0
_cell_length_a       10.8877
_cell_length_b       11.9296
_cell_length_c       11.9776
_cell_angle_alpha    70.521
_cell_angle_beta     64.322
_cell_angle_gamma    64.679

_symmetry_space_group_name_H-M    "P 1"
_symmetry_int_tables_number       1

loop_
  _symmetry_equiv_pos_as_xyz
  'x, y, z'

loop_
  _atom_site_label
  _atom_site_occupancy
  _atom_site_fract_x
  _atom_site_fract_y
  _atom_site_fract_z
  _atom_site_thermal_displace_type
  _atom_site_B_iso_or_equiv
  _atom_site_type_symbol
  Cd1      1.0000 0.11933  0.54094  0.01791  Biso   1.000  Cd
  Cd2      1.0000 0.35841  0.55541  0.40856  Biso   1.000  Cd
  Cd3      1.0000 0.96450  0.55495  0.63744  Biso   1.000  Cd
  Cd4      1.0000 0.27141  0.38361  0.72895  Biso   1.000  Cd
  C1       1.0000 0.16400  0.84880  0.52170  Biso   1.000  C
  C2       1.0000 0.96950  0.83130  0.51810  Biso   1.000  C
  C3       1.0000 0.15940  0.82670  0.34330  Biso   1.000  C
  C4       1.0000 0.16760  0.77170  0.16160  Biso   1.000  C
  H1       1.0000 0.22880  0.76710  0.07440  Biso   1.000  H
  H2       1.0000 0.07350  0.83300  0.16240  Biso   1.000  H
  C5       1.0000 0.15150  0.64520  0.22850  Biso   1.000  C
  C6       1.0000 0.36420  0.84120  0.15080  Biso   1.000  C
  H3       1.0000 0.34580  0.92870  0.14930  Biso   1.000  H
  H4       1.0000 0.39560  0.83130  0.06440  Biso   1.000  H
  C7       1.0000 0.48760  0.75810  0.20270  Biso   1.000  C
  C8       1.0000 0.75180  0.82970  0.50900  Biso   1.000  C
  H5       1.0000 0.75440  0.90530  0.44520  Biso   1.000  H
  H6       1.0000 0.65190  0.84270  0.56350  Biso   1.000  H
  C9       1.0000 0.80230  0.71990  0.44380  Biso   1.000  C
  C10      1.0000 0.75810  0.84940  0.70980  Biso   1.000  C
  H7       1.0000 0.65640  0.86450  0.73060  Biso   1.000  H
  H8       1.0000 0.76710  0.92880  0.70420  Biso   1.000  H
  C11      1.0000 0.80360  0.75760  0.81790  Biso   1.000  C
  C12      1.0000 0.16580  0.86460  0.71890  Biso   1.000  C
  H9       1.0000 0.06620  0.91980  0.73440  Biso   1.000  H
  H10      1.0000 0.21420  0.90210  0.74050  Biso   1.000  H
  C13      1.0000 0.16780  0.73750  0.80570  Biso   1.000  C
  C14      1.0000 0.39110  0.83570  0.53040  Biso   1.000  C
  H11      1.0000 0.41560  0.88150  0.56670  Biso   1.000  H
  H12      1.0000 0.41820  0.86660  0.44030  Biso   1.000  H
  C15      1.0000 0.47600  0.69440  0.55610  Biso   1.000  C
  N1       1.0000 0.83610  0.81450  0.58430  Biso   1.000  N
  N2       1.0000 0.02580  0.82430  0.39730  Biso   1.000  N
  N3       1.0000 0.23120  0.81490  0.22010  Biso   1.000  N
  N4       1.0000 0.23650  0.83770  0.39910  Biso   1.000  N
  N5       1.0000 0.23450  0.85910  0.58460  Biso   1.000  N
  N6       1.0000 0.02920  0.84860  0.58540  Biso   1.000  N
  O1       1.0000 0.87680  0.59400  0.08110  Biso   1.000  O
  H13      1.0000 0.85520  0.57760  0.02950  Biso   1.000  H
  H14      1.0000 0.83740  0.67230  0.08360  Biso   1.000  H
  O2       1.0000 0.07010  0.61400  0.20060  Biso   1.000  O
  O3       1.0000 0.21240  0.57190  0.30620  Biso   1.000  O
  O4       1.0000 0.50850  0.63820  0.23680  Biso   1.000  O
  O5       1.0000 0.18820  0.55410  0.59660  Biso   1.000  O
  O6       1.0000 0.48960  0.62470  0.48710  Biso   1.000  O
  O7       1.0000 0.88920  0.61550  0.47480  Biso   1.000  O
  O8       1.0000 0.56910  0.80370  0.20150  Biso   1.000  O
  O9       1.0000 0.53660  0.65270  0.63480  Biso   1.000  O
  O10      1.0000 0.22040  0.63960  0.76180  Biso   1.000  O
  O11      1.0000 0.11370  0.74030  0.92240  Biso   1.000  O
  O12      1.0000 0.87170  0.63990  0.80740  Biso   1.000  O
  O13      1.0000 0.76810  0.79830  0.91160  Biso   1.000  O
  O14      1.0000 0.74310  0.74370  0.36590  Biso   1.000  O
  Cd5      1.0000 0.88067  0.45906  0.98209  Biso   1.000  Cd
  Cd6      1.0000 0.64159  0.44459  0.59144  Biso   1.000  Cd
  Cd7      1.0000 0.03550  0.44505  0.36256  Biso   1.000  Cd
  Cd8      1.0000 0.72859  0.61639  0.27105  Biso   1.000  Cd
  C16      1.0000 0.83600  0.15120  0.47830  Biso   1.000  C
  C17      1.0000 0.03050  0.16870  0.48190  Biso   1.000  C
  C18      1.0000 0.84060  0.17330  0.65670  Biso   1.000  C
  C19      1.0000 0.83240  0.22830  0.83840  Biso   1.000  C
  H15      1.0000 0.77120  0.23290  0.92560  Biso   1.000  H
  H16      1.0000 0.92650  0.16700  0.83760  Biso   1.000  H
  C20      1.0000 0.84850  0.35480  0.77150  Biso   1.000  C
  C21      1.0000 0.63580  0.15880  0.84920  Biso   1.000  C
  H17      1.0000 0.65420  0.07130  0.85070  Biso   1.000  H
  H18      1.0000 0.60440  0.16870  0.93560  Biso   1.000  H
  C22      1.0000 0.51240  0.24190  0.79730  Biso   1.000  C
  C23      1.0000 0.24820  0.17030  0.49100  Biso   1.000  C
  H19      1.0000 0.24560  0.09470  0.55480  Biso   1.000  H
  H20      1.0000 0.34810  0.15730  0.43650  Biso   1.000  H
  C24      1.0000 0.19770  0.28010  0.55620  Biso   1.000  C
  C25      1.0000 0.24190  0.15060  0.29020  Biso   1.000  C
  H21      1.0000 0.34360  0.13550  0.26940  Biso   1.000  H
  H22      1.0000 0.23290  0.07120  0.29580  Biso   1.000  H
  C26      1.0000 0.19640  0.24240  0.18210  Biso   1.000  C
  C27      1.0000 0.83420  0.13540  0.28110  Biso   1.000  C
  H23      1.0000 0.93380  0.08020  0.26560  Biso   1.000  H
  H24      1.0000 0.78580  0.09790  0.25950  Biso   1.000  H
  C28      1.0000 0.83220  0.26250  0.19430  Biso   1.000  C
  C29      1.0000 0.60890  0.16430  0.46960  Biso   1.000  C
  H25      1.0000 0.58440  0.11850  0.43330  Biso   1.000  H
  H26      1.0000 0.58180  0.13340  0.55970  Biso   1.000  H
  C30      1.0000 0.52400  0.30560  0.44390  Biso   1.000  C
  N7       1.0000 0.16390  0.18550  0.41570  Biso   1.000  N
  N8       1.0000 0.97420  0.17570  0.60270  Biso   1.000  N
  N9       1.0000 0.76880  0.18510  0.77990  Biso   1.000  N
  N10      1.0000 0.76350  0.16230  0.60090  Biso   1.000  N
  N11      1.0000 0.76550  0.14090  0.41540  Biso   1.000  N
  N12      1.0000 0.97080  0.15140  0.41460  Biso   1.000  N
  O15      1.0000 0.12320  0.40600  0.91890  Biso   1.000  O
  H27      1.0000 0.14480  0.42240  0.97050  Biso   1.000  H
  H28      1.0000 0.16260  0.32770  0.91640  Biso   1.000  H
  O16      1.0000 0.92990  0.38600  0.79940  Biso   1.000  O
  O17      1.0000 0.78760  0.42810  0.69380  Biso   1.000  O
  O18      1.0000 0.49150  0.36180  0.76320  Biso   1.000  O
  O19      1.0000 0.81180  0.44590  0.40340  Biso   1.000  O
  O20      1.0000 0.51040  0.37530  0.51290  Biso   1.000  O
  O21      1.0000 0.11080  0.38450  0.52520  Biso   1.000  O
  O22      1.0000 0.43090  0.19630  0.79850  Biso   1.000  O
  O23      1.0000 0.46340  0.34730  0.36520  Biso   1.000  O
  O24      1.0000 0.77960  0.36040  0.23820  Biso   1.000  O
  O25      1.0000 0.88630  0.25970  0.07760  Biso   1.000  O
  O26      1.0000 0.12830  0.36010  0.19260  Biso   1.000  O
  O27      1.0000 0.23190  0.20170  0.08840  Biso   1.000  O
  O28      1.0000 0.25690  0.25630  0.63410  Biso   1.000  O
