data_image0
_cell_length_a       15.3271
_cell_length_b       17.5154
_cell_length_c       11.6216
_cell_angle_alpha    90
_cell_angle_beta     101.145
_cell_angle_gamma    90

_symmetry_space_group_name_H-M    "P 1"
_symmetry_int_tables_number       1

loop_
  _symmetry_equiv_pos_as_xyz
  'x, y, z'

loop_
  _atom_site_label
  _atom_site_occupancy
  _atom_site_fract_x
  _atom_site_fract_y
  _atom_site_fract_z
  _atom_site_thermal_displace_type
  _atom_site_B_iso_or_equiv
  _atom_site_type_symbol
  C1       1.0000 0.01580  0.26980  0.66440  Biso   1.000  C
  C2       1.0000 0.92020  0.28040  0.60260  Biso   1.000  C
  C3       1.0000 0.88950  0.25200  0.49150  Biso   1.000  C
  H1       1.0000 0.92860  0.22770  0.45140  Biso   1.000  H
  C4       1.0000 0.80030  0.25950  0.43900  Biso   1.000  C
  H2       1.0000 0.77920  0.23970  0.36460  Biso   1.000  H
  C5       1.0000 0.74360  0.29650  0.49870  Biso   1.000  C
  C6       1.0000 0.77220  0.32590  0.60870  Biso   1.000  C
  H3       1.0000 0.73290  0.35080  0.64770  Biso   1.000  H
  C7       1.0000 0.86120  0.31770  0.66090  Biso   1.000  C
  H4       1.0000 0.88170  0.33740  0.73560  Biso   1.000  H
  C8       1.0000 0.58600  0.28140  0.48700  Biso   1.000  C
  C9       1.0000 0.50450  0.31380  0.44110  Biso   1.000  C
  H5       1.0000 0.50040  0.35240  0.38530  Biso   1.000  H
  C10      1.0000 0.42950  0.28860  0.47830  Biso   1.000  C
  H6       1.0000 0.37450  0.30970  0.44640  Biso   1.000  H
  C11      1.0000 0.43520  0.23180  0.56350  Biso   1.000  C
  C12      1.0000 0.51790  0.20130  0.60970  Biso   1.000  C
  H7       1.0000 0.52290  0.16410  0.66780  Biso   1.000  H
  C13      1.0000 0.59350  0.22510  0.57070  Biso   1.000  C
  H8       1.0000 0.64850  0.20330  0.60070  Biso   1.000  H
  C14      1.0000 0.35340  0.20700  0.60550  Biso   1.000  C
  C15      1.0000 0.25410  0.05460  0.88090  Biso   1.000  C
  H9       1.0000 0.29300  0.04140  0.83200  Biso   1.000  H
  C16      1.0000 0.25570  0.01280  0.98100  Biso   1.000  C
  H10      1.0000 0.29600  0.97290  0.99940  Biso   1.000  H
  C17      1.0000 0.19770  0.02960  0.05440  Biso   1.000  C
  C18      1.0000 0.14160  0.09130  0.02400  Biso   1.000  C
  H11      1.0000 0.10220  0.10520  0.07200  Biso   1.000  H
  C19      1.0000 0.14360  0.13240  0.92400  Biso   1.000  C
  H12      1.0000 0.10580  0.17410  0.90660  Biso   1.000  H
  C20      1.0000 0.19560  0.98540  0.16460  Biso   1.000  C
  H13      1.0000 0.20850  0.01990  0.23100  Biso   1.000  H
  H14      1.0000 0.24220  0.94710  0.17460  Biso   1.000  H
  C21      1.0000 0.10700  0.94610  0.16510  Biso   1.000  C
  H15      1.0000 0.09680  0.90780  0.10360  Biso   1.000  H
  H16      1.0000 0.05960  0.98350  0.14770  Biso   1.000  H
  C22      1.0000 0.10310  0.90750  0.28360  Biso   1.000  C
  H17      1.0000 0.04510  0.88440  0.27920  Biso   1.000  H
  H18      1.0000 0.14720  0.86720  0.29810  Biso   1.000  H
  C23      1.0000 0.20990  0.01570  0.55660  Biso   1.000  C
  H19      1.0000 0.26100  0.01170  0.61430  Biso   1.000  H
  C24      1.0000 0.19290  0.95800  0.47400  Biso   1.000  C
  H20      1.0000 0.23050  0.91600  0.47890  Biso   1.000  H
  C25      1.0000 0.11990  0.96330  0.38440  Biso   1.000  C
  C26      1.0000 0.06580  0.02670  0.38820  Biso   1.000  C
  H21      1.0000 0.01480  0.03270  0.33080  Biso   1.000  H
  C27      1.0000 0.08600  0.07990  0.47380  Biso   1.000  C
  H22      1.0000 0.04760  0.12110  0.47310  Biso   1.000  H
  Cd1      1.0000 0.19890  0.18348  0.68257  Biso   1.000  Cd
  N1       1.0000 0.19820  0.11460  0.84980  Biso   1.000  N
  N2       1.0000 0.15830  0.07630  0.55930  Biso   1.000  N
  O1       1.0000 0.06370  0.22890  0.61150  Biso   1.000  O
  O2       1.0000 0.04070  0.30070  0.76090  Biso   1.000  O
  O3       1.0000 0.65606  0.30840  0.43920  Biso   1.000  O
  O4       1.0000 0.27862  0.23240  0.55210  Biso   1.000  O
  O5       1.0000 0.35886  0.16280  0.69190  Biso   1.000  O
  C28      1.0000 0.98420  0.76980  0.83560  Biso   1.000  C
  C29      1.0000 0.07980  0.78040  0.89740  Biso   1.000  C
  C30      1.0000 0.11050  0.75200  0.00850  Biso   1.000  C
  H23      1.0000 0.07140  0.72770  0.04860  Biso   1.000  H
  C31      1.0000 0.19970  0.75950  0.06100  Biso   1.000  C
  H24      1.0000 0.22080  0.73970  0.13540  Biso   1.000  H
  C32      1.0000 0.25640  0.79650  0.00130  Biso   1.000  C
  C33      1.0000 0.22780  0.82590  0.89130  Biso   1.000  C
  H25      1.0000 0.26710  0.85080  0.85230  Biso   1.000  H
  C34      1.0000 0.13880  0.81770  0.83910  Biso   1.000  C
  H26      1.0000 0.11830  0.83740  0.76440  Biso   1.000  H
  C35      1.0000 0.41400  0.78140  0.01300  Biso   1.000  C
  C36      1.0000 0.49550  0.81380  0.05890  Biso   1.000  C
  H27      1.0000 0.49960  0.85240  0.11470  Biso   1.000  H
  C37      1.0000 0.57050  0.78860  0.02170  Biso   1.000  C
  H28      1.0000 0.62550  0.80970  0.05360  Biso   1.000  H
  C38      1.0000 0.56480  0.73180  0.93650  Biso   1.000  C
  C39      1.0000 0.48210  0.70130  0.89030  Biso   1.000  C
  H29      1.0000 0.47710  0.66410  0.83220  Biso   1.000  H
  C40      1.0000 0.40650  0.72510  0.92930  Biso   1.000  C
  H30      1.0000 0.35150  0.70330  0.89930  Biso   1.000  H
  C41      1.0000 0.64660  0.70700  0.89450  Biso   1.000  C
  C42      1.0000 0.74590  0.55460  0.61910  Biso   1.000  C
  H31      1.0000 0.70700  0.54140  0.66800  Biso   1.000  H
  C43      1.0000 0.74430  0.51280  0.51900  Biso   1.000  C
  H32      1.0000 0.70400  0.47290  0.50060  Biso   1.000  H
  C44      1.0000 0.80230  0.52960  0.44560  Biso   1.000  C
  C45      1.0000 0.85840  0.59130  0.47600  Biso   1.000  C
  H33      1.0000 0.89780  0.60520  0.42800  Biso   1.000  H
  C46      1.0000 0.85640  0.63240  0.57600  Biso   1.000  C
  H34      1.0000 0.89420  0.67410  0.59340  Biso   1.000  H
  C47      1.0000 0.80440  0.48540  0.33540  Biso   1.000  C
  H35      1.0000 0.79150  0.51990  0.26900  Biso   1.000  H
  H36      1.0000 0.75780  0.44710  0.32540  Biso   1.000  H
  C48      1.0000 0.89300  0.44610  0.33490  Biso   1.000  C
  H37      1.0000 0.90320  0.40780  0.39640  Biso   1.000  H
  H38      1.0000 0.94040  0.48350  0.35230  Biso   1.000  H
  C49      1.0000 0.89690  0.40750  0.21640  Biso   1.000  C
  H39      1.0000 0.95490  0.38440  0.22080  Biso   1.000  H
  H40      1.0000 0.85280  0.36720  0.20190  Biso   1.000  H
  C50      1.0000 0.79010  0.51570  0.94340  Biso   1.000  C
  H41      1.0000 0.73900  0.51170  0.88570  Biso   1.000  H
  C51      1.0000 0.80710  0.45800  0.02600  Biso   1.000  C
  H42      1.0000 0.76950  0.41600  0.02110  Biso   1.000  H
  C52      1.0000 0.88010  0.46330  0.11560  Biso   1.000  C
  C53      1.0000 0.93420  0.52670  0.11180  Biso   1.000  C
  H43      1.0000 0.98520  0.53270  0.16920  Biso   1.000  H
  C54      1.0000 0.91400  0.57990  0.02620  Biso   1.000  C
  H44      1.0000 0.95240  0.62110  0.02690  Biso   1.000  H
  Cd2      1.0000 0.80110  0.68348  0.81743  Biso   1.000  Cd
  N3       1.0000 0.80180  0.61460  0.65020  Biso   1.000  N
  N4       1.0000 0.84170  0.57630  0.94070  Biso   1.000  N
  O6       1.0000 0.93630  0.72890  0.88850  Biso   1.000  O
  O7       1.0000 0.95930  0.80070  0.73910  Biso   1.000  O
  O8       1.0000 0.34394  0.80840  0.06080  Biso   1.000  O
  O9       1.0000 0.72138  0.73240  0.94790  Biso   1.000  O
  O10      1.0000 0.64114  0.66280  0.80810  Biso   1.000  O
  C55      1.0000 0.98420  0.73020  0.33560  Biso   1.000  C
  C56      1.0000 0.07980  0.71960  0.39740  Biso   1.000  C
  C57      1.0000 0.11050  0.74800  0.50850  Biso   1.000  C
  H45      1.0000 0.07140  0.77230  0.54860  Biso   1.000  H
  C58      1.0000 0.19970  0.74050  0.56100  Biso   1.000  C
  H46      1.0000 0.22080  0.76030  0.63540  Biso   1.000  H
  C59      1.0000 0.25640  0.70350  0.50130  Biso   1.000  C
  C60      1.0000 0.22780  0.67410  0.39130  Biso   1.000  C
  H47      1.0000 0.26710  0.64920  0.35230  Biso   1.000  H
  C61      1.0000 0.13880  0.68230  0.33910  Biso   1.000  C
  H48      1.0000 0.11830  0.66260  0.26440  Biso   1.000  H
  C62      1.0000 0.41400  0.71860  0.51300  Biso   1.000  C
  C63      1.0000 0.49550  0.68620  0.55890  Biso   1.000  C
  H49      1.0000 0.49960  0.64760  0.61470  Biso   1.000  H
  C64      1.0000 0.57050  0.71140  0.52170  Biso   1.000  C
  H50      1.0000 0.62550  0.69030  0.55360  Biso   1.000  H
  C65      1.0000 0.56480  0.76820  0.43650  Biso   1.000  C
  C66      1.0000 0.48210  0.79870  0.39030  Biso   1.000  C
  H51      1.0000 0.47710  0.83590  0.33220  Biso   1.000  H
  C67      1.0000 0.40650  0.77490  0.42930  Biso   1.000  C
  H52      1.0000 0.35150  0.79670  0.39930  Biso   1.000  H
  C68      1.0000 0.64660  0.79300  0.39450  Biso   1.000  C
  C69      1.0000 0.74590  0.94540  0.11910  Biso   1.000  C
  H53      1.0000 0.70700  0.95860  0.16800  Biso   1.000  H
  C70      1.0000 0.74430  0.98720  0.01900  Biso   1.000  C
  H54      1.0000 0.70400  0.02710  0.00060  Biso   1.000  H
  C71      1.0000 0.80230  0.97040  0.94560  Biso   1.000  C
  C72      1.0000 0.85840  0.90870  0.97600  Biso   1.000  C
  H55      1.0000 0.89780  0.89480  0.92800  Biso   1.000  H
  C73      1.0000 0.85640  0.86760  0.07600  Biso   1.000  C
  H56      1.0000 0.89420  0.82590  0.09340  Biso   1.000  H
  C74      1.0000 0.80440  0.01460  0.83540  Biso   1.000  C
  H57      1.0000 0.79150  0.98010  0.76900  Biso   1.000  H
  H58      1.0000 0.75780  0.05290  0.82540  Biso   1.000  H
  C75      1.0000 0.89300  0.05390  0.83490  Biso   1.000  C
  H59      1.0000 0.90320  0.09220  0.89640  Biso   1.000  H
  H60      1.0000 0.94040  0.01650  0.85230  Biso   1.000  H
  C76      1.0000 0.89690  0.09250  0.71640  Biso   1.000  C
  H61      1.0000 0.95490  0.11560  0.72080  Biso   1.000  H
  H62      1.0000 0.85280  0.13280  0.70190  Biso   1.000  H
  C77      1.0000 0.79010  0.98430  0.44340  Biso   1.000  C
  H63      1.0000 0.73900  0.98830  0.38570  Biso   1.000  H
  C78      1.0000 0.80710  0.04200  0.52600  Biso   1.000  C
  H64      1.0000 0.76950  0.08400  0.52110  Biso   1.000  H
  C79      1.0000 0.88010  0.03670  0.61560  Biso   1.000  C
  C80      1.0000 0.93420  0.97330  0.61180  Biso   1.000  C
  H65      1.0000 0.98520  0.96730  0.66920  Biso   1.000  H
  C81      1.0000 0.91400  0.92010  0.52620  Biso   1.000  C
  H66      1.0000 0.95240  0.87890  0.52690  Biso   1.000  H
  Cd3      1.0000 0.80110  0.81652  0.31743  Biso   1.000  Cd
  N5       1.0000 0.80180  0.88540  0.15020  Biso   1.000  N
  N6       1.0000 0.84170  0.92370  0.44070  Biso   1.000  N
  O11      1.0000 0.93630  0.77110  0.38850  Biso   1.000  O
  O12      1.0000 0.95930  0.69930  0.23910  Biso   1.000  O
  O13      1.0000 0.34394  0.69160  0.56080  Biso   1.000  O
  O14      1.0000 0.72138  0.76760  0.44790  Biso   1.000  O
  O15      1.0000 0.64114  0.83720  0.30810  Biso   1.000  O
  C82      1.0000 0.01580  0.23020  0.16440  Biso   1.000  C
  C83      1.0000 0.92020  0.21960  0.10260  Biso   1.000  C
  C84      1.0000 0.88950  0.24800  0.99150  Biso   1.000  C
  H67      1.0000 0.92860  0.27230  0.95140  Biso   1.000  H
  C85      1.0000 0.80030  0.24050  0.93900  Biso   1.000  C
  H68      1.0000 0.77920  0.26030  0.86460  Biso   1.000  H
  C86      1.0000 0.74360  0.20350  0.99870  Biso   1.000  C
  C87      1.0000 0.77220  0.17410  0.10870  Biso   1.000  C
  H69      1.0000 0.73290  0.14920  0.14770  Biso   1.000  H
  C88      1.0000 0.86120  0.18230  0.16090  Biso   1.000  C
  H70      1.0000 0.88170  0.16260  0.23560  Biso   1.000  H
  C89      1.0000 0.58600  0.21860  0.98700  Biso   1.000  C
  C90      1.0000 0.50450  0.18620  0.94110  Biso   1.000  C
  H71      1.0000 0.50040  0.14760  0.88530  Biso   1.000  H
  C91      1.0000 0.42950  0.21140  0.97830  Biso   1.000  C
  H72      1.0000 0.37450  0.19030  0.94640  Biso   1.000  H
  C92      1.0000 0.43520  0.26820  0.06350  Biso   1.000  C
  C93      1.0000 0.51790  0.29870  0.10970  Biso   1.000  C
  H73      1.0000 0.52290  0.33590  0.16780  Biso   1.000  H
  C94      1.0000 0.59350  0.27490  0.07070  Biso   1.000  C
  H74      1.0000 0.64850  0.29670  0.10070  Biso   1.000  H
  C95      1.0000 0.35340  0.29300  0.10550  Biso   1.000  C
  C96      1.0000 0.25410  0.44540  0.38090  Biso   1.000  C
  H75      1.0000 0.29300  0.45860  0.33200  Biso   1.000  H
  C97      1.0000 0.25570  0.48720  0.48100  Biso   1.000  C
  H76      1.0000 0.29600  0.52710  0.49940  Biso   1.000  H
  C98      1.0000 0.19770  0.47040  0.55440  Biso   1.000  C
  C99      1.0000 0.14160  0.40870  0.52400  Biso   1.000  C
  H77      1.0000 0.10220  0.39480  0.57200  Biso   1.000  H
  C100     1.0000 0.14360  0.36760  0.42400  Biso   1.000  C
  H78      1.0000 0.10580  0.32590  0.40660  Biso   1.000  H
  C101     1.0000 0.19560  0.51460  0.66460  Biso   1.000  C
  H79      1.0000 0.20850  0.48010  0.73100  Biso   1.000  H
  H80      1.0000 0.24220  0.55290  0.67460  Biso   1.000  H
  C102     1.0000 0.10700  0.55390  0.66510  Biso   1.000  C
  H81      1.0000 0.09680  0.59220  0.60360  Biso   1.000  H
  H82      1.0000 0.05960  0.51650  0.64770  Biso   1.000  H
  C103     1.0000 0.10310  0.59250  0.78360  Biso   1.000  C
  H83      1.0000 0.04510  0.61560  0.77920  Biso   1.000  H
  H84      1.0000 0.14720  0.63280  0.79810  Biso   1.000  H
  C104     1.0000 0.20990  0.48430  0.05660  Biso   1.000  C
  H85      1.0000 0.26100  0.48830  0.11430  Biso   1.000  H
  C105     1.0000 0.19290  0.54200  0.97400  Biso   1.000  C
  H86      1.0000 0.23050  0.58400  0.97890  Biso   1.000  H
  C106     1.0000 0.11990  0.53670  0.88440  Biso   1.000  C
  C107     1.0000 0.06580  0.47330  0.88820  Biso   1.000  C
  H87      1.0000 0.01480  0.46730  0.83080  Biso   1.000  H
  C108     1.0000 0.08600  0.42010  0.97380  Biso   1.000  C
  H88      1.0000 0.04760  0.37890  0.97310  Biso   1.000  H
  Cd4      1.0000 0.19890  0.31652  0.18257  Biso   1.000  Cd
  N7       1.0000 0.19820  0.38540  0.34980  Biso   1.000  N
  N8       1.0000 0.15830  0.42370  0.05930  Biso   1.000  N
  O16      1.0000 0.06370  0.27110  0.11150  Biso   1.000  O
  O17      1.0000 0.04070  0.19930  0.26090  Biso   1.000  O
  O18      1.0000 0.65606  0.19160  0.93920  Biso   1.000  O
  O19      1.0000 0.27862  0.26760  0.05210  Biso   1.000  O
  O20      1.0000 0.35886  0.33720  0.19190  Biso   1.000  O
