data_image0
_cell_length_a       10.859
_cell_length_b       15.719
_cell_length_c       17.294
_cell_angle_alpha    90
_cell_angle_beta     100.957
_cell_angle_gamma    90

_symmetry_space_group_name_H-M    "P 1"
_symmetry_int_tables_number       1

loop_
  _symmetry_equiv_pos_as_xyz
  'x, y, z'

loop_
  _atom_site_label
  _atom_site_occupancy
  _atom_site_fract_x
  _atom_site_fract_y
  _atom_site_fract_z
  _atom_site_thermal_displace_type
  _atom_site_B_iso_or_equiv
  _atom_site_type_symbol
  Co1      1.0000 0.48826  0.25426  0.17444  Biso   1.000  Co
  N1       1.0000 0.59058  0.31702  0.11536  Biso   1.000  N
  N2       1.0000 0.68540  0.28172  0.08536  Biso   1.000  N
  N3       1.0000 0.73555  0.34154  0.04974  Biso   1.000  N
  N4       1.0000 0.67540  0.41666  0.05392  Biso   1.000  N
  N5       1.0000 0.26454  0.46198  0.11262  Biso   1.000  N
  N6       1.0000 0.18147  0.40336  0.12882  Biso   1.000  N
  N7       1.0000 0.23908  0.33192  0.15159  Biso   1.000  N
  N8       1.0000 0.36250  0.34258  0.15089  Biso   1.000  N
  N9       1.0000 0.56498  0.30938  0.27171  Biso   1.000  N
  N10      1.0000 0.63357  0.38148  0.27530  Biso   1.000  N
  N11      1.0000 0.68240  0.39542  0.34972  Biso   1.000  N
  N12      1.0000 0.64694  0.33414  0.39593  Biso   1.000  N
  N13      1.0000 0.31897  0.12348  0.32984  Biso   1.000  N
  N14      1.0000 0.24177  0.10818  0.26055  Biso   1.000  N
  N15      1.0000 0.28156  0.14686  0.20288  Biso   1.000  N
  N16      1.0000 0.38822  0.18880  0.23410  Biso   1.000  N
  N17      1.0000 0.41589  0.19659  0.07934  Biso   1.000  N
  N18      1.0000 0.34660  0.23546  0.01602  Biso   1.000  N
  N19      1.0000 0.31190  0.17701  0.96254  Biso   1.000  N
  N20      1.0000 0.35760  0.09952  0.98892  Biso   1.000  N
  N21      1.0000 0.71570  0.04813  0.18612  Biso   1.000  N
  N22      1.0000 0.79150  0.10570  0.23050  Biso   1.000  N
  N23      1.0000 0.73136  0.17676  0.23503  Biso   1.000  N
  N24      1.0000 0.61332  0.16624  0.19423  Biso   1.000  N
  C1       1.0000 0.58620  0.39930  0.09489  Biso   1.000  C
  C2       1.0000 0.49540  0.46215  0.11538  Biso   1.000  C
  H1       1.0000 0.47740  0.50530  0.07300  Biso   1.000  H
  H2       1.0000 0.53400  0.49180  0.16460  Biso   1.000  H
  C3       1.0000 0.37500  0.42245  0.12636  Biso   1.000  C
  C4       1.0000 0.57550  0.28213  0.34597  Biso   1.000  C
  C5       1.0000 0.52030  0.20184  0.37006  Biso   1.000  C
  H3       1.0000 0.49520  0.21080  0.42160  Biso   1.000  H
  H4       1.0000 0.58490  0.15670  0.37680  Biso   1.000  H
  C6       1.0000 0.40890  0.17274  0.31174  Biso   1.000  C
  C7       1.0000 0.42190  0.11420  0.06108  Biso   1.000  C
  C8       1.0000 0.49270  0.04942  0.11489  Biso   1.000  C
  H5       1.0000 0.43770  0.02580  0.14920  Biso   1.000  H
  H6       1.0000 0.51780  0.00220  0.08340  Biso   1.000  H
  C9       1.0000 0.60640  0.08705  0.16458  Biso   1.000  C
  Co2      1.0000 0.51174  0.75426  0.32556  Biso   1.000  Co
  N25      1.0000 0.40942  0.81702  0.38464  Biso   1.000  N
  N26      1.0000 0.31460  0.78172  0.41464  Biso   1.000  N
  N27      1.0000 0.26445  0.84154  0.45026  Biso   1.000  N
  N28      1.0000 0.32460  0.91666  0.44608  Biso   1.000  N
  N29      1.0000 0.73546  0.96198  0.38738  Biso   1.000  N
  N30      1.0000 0.81853  0.90336  0.37118  Biso   1.000  N
  N31      1.0000 0.76092  0.83192  0.34841  Biso   1.000  N
  N32      1.0000 0.63750  0.84258  0.34911  Biso   1.000  N
  N33      1.0000 0.43502  0.80938  0.22829  Biso   1.000  N
  N34      1.0000 0.36643  0.88148  0.22470  Biso   1.000  N
  N35      1.0000 0.31760  0.89542  0.15028  Biso   1.000  N
  N36      1.0000 0.35306  0.83414  0.10407  Biso   1.000  N
  N37      1.0000 0.68103  0.62348  0.17016  Biso   1.000  N
  N38      1.0000 0.75823  0.60818  0.23945  Biso   1.000  N
  N39      1.0000 0.71844  0.64686  0.29712  Biso   1.000  N
  N40      1.0000 0.61178  0.68880  0.26590  Biso   1.000  N
  N41      1.0000 0.58411  0.69659  0.42066  Biso   1.000  N
  N42      1.0000 0.65340  0.73546  0.48398  Biso   1.000  N
  N43      1.0000 0.68810  0.67701  0.53746  Biso   1.000  N
  N44      1.0000 0.64240  0.59952  0.51108  Biso   1.000  N
  N45      1.0000 0.28430  0.54813  0.31388  Biso   1.000  N
  N46      1.0000 0.20850  0.60570  0.26950  Biso   1.000  N
  N47      1.0000 0.26864  0.67676  0.26497  Biso   1.000  N
  N48      1.0000 0.38668  0.66624  0.30577  Biso   1.000  N
  C10      1.0000 0.41380  0.89930  0.40511  Biso   1.000  C
  C11      1.0000 0.50460  0.96215  0.38462  Biso   1.000  C
  H7       1.0000 0.52260  0.00530  0.42700  Biso   1.000  H
  H8       1.0000 0.46600  0.99180  0.33540  Biso   1.000  H
  C12      1.0000 0.62500  0.92245  0.37364  Biso   1.000  C
  C13      1.0000 0.42450  0.78213  0.15403  Biso   1.000  C
  C14      1.0000 0.47970  0.70184  0.12994  Biso   1.000  C
  H9       1.0000 0.50480  0.71080  0.07840  Biso   1.000  H
  H10      1.0000 0.41510  0.65670  0.12320  Biso   1.000  H
  C15      1.0000 0.59110  0.67274  0.18826  Biso   1.000  C
  C16      1.0000 0.57810  0.61420  0.43892  Biso   1.000  C
  C17      1.0000 0.50730  0.54942  0.38511  Biso   1.000  C
  H11      1.0000 0.56230  0.52580  0.35080  Biso   1.000  H
  H12      1.0000 0.48220  0.50220  0.41660  Biso   1.000  H
  C18      1.0000 0.39360  0.58705  0.33542  Biso   1.000  C
  Co3      1.0000 0.51174  0.74574  0.82556  Biso   1.000  Co
  N49      1.0000 0.40942  0.68298  0.88464  Biso   1.000  N
  N50      1.0000 0.31460  0.71828  0.91464  Biso   1.000  N
  N51      1.0000 0.26445  0.65846  0.95026  Biso   1.000  N
  N52      1.0000 0.32460  0.58334  0.94608  Biso   1.000  N
  N53      1.0000 0.73546  0.53802  0.88738  Biso   1.000  N
  N54      1.0000 0.81853  0.59664  0.87118  Biso   1.000  N
  N55      1.0000 0.76092  0.66808  0.84841  Biso   1.000  N
  N56      1.0000 0.63750  0.65742  0.84911  Biso   1.000  N
  N57      1.0000 0.43502  0.69062  0.72829  Biso   1.000  N
  N58      1.0000 0.36643  0.61852  0.72470  Biso   1.000  N
  N59      1.0000 0.31760  0.60458  0.65028  Biso   1.000  N
  N60      1.0000 0.35306  0.66586  0.60407  Biso   1.000  N
  N61      1.0000 0.68103  0.87652  0.67016  Biso   1.000  N
  N62      1.0000 0.75823  0.89182  0.73945  Biso   1.000  N
  N63      1.0000 0.71844  0.85314  0.79712  Biso   1.000  N
  N64      1.0000 0.61178  0.81120  0.76590  Biso   1.000  N
  N65      1.0000 0.58411  0.80341  0.92066  Biso   1.000  N
  N66      1.0000 0.65340  0.76454  0.98398  Biso   1.000  N
  N67      1.0000 0.68810  0.82299  0.03746  Biso   1.000  N
  N68      1.0000 0.64240  0.90048  0.01108  Biso   1.000  N
  N69      1.0000 0.28430  0.95187  0.81388  Biso   1.000  N
  N70      1.0000 0.20850  0.89430  0.76950  Biso   1.000  N
  N71      1.0000 0.26864  0.82324  0.76497  Biso   1.000  N
  N72      1.0000 0.38668  0.83376  0.80577  Biso   1.000  N
  C19      1.0000 0.41380  0.60070  0.90511  Biso   1.000  C
  C20      1.0000 0.50460  0.53785  0.88462  Biso   1.000  C
  H13      1.0000 0.52260  0.49470  0.92700  Biso   1.000  H
  H14      1.0000 0.46600  0.50820  0.83540  Biso   1.000  H
  C21      1.0000 0.62500  0.57755  0.87364  Biso   1.000  C
  C22      1.0000 0.42450  0.71787  0.65403  Biso   1.000  C
  C23      1.0000 0.47970  0.79816  0.62994  Biso   1.000  C
  H15      1.0000 0.50480  0.78920  0.57840  Biso   1.000  H
  H16      1.0000 0.41510  0.84330  0.62320  Biso   1.000  H
  C24      1.0000 0.59110  0.82726  0.68826  Biso   1.000  C
  C25      1.0000 0.57810  0.88580  0.93892  Biso   1.000  C
  C26      1.0000 0.50730  0.95058  0.88511  Biso   1.000  C
  H17      1.0000 0.56230  0.97420  0.85080  Biso   1.000  H
  H18      1.0000 0.48220  0.99780  0.91660  Biso   1.000  H
  C27      1.0000 0.39360  0.91295  0.83542  Biso   1.000  C
  Co4      1.0000 0.48826  0.24574  0.67444  Biso   1.000  Co
  N73      1.0000 0.59058  0.18298  0.61536  Biso   1.000  N
  N74      1.0000 0.68540  0.21828  0.58536  Biso   1.000  N
  N75      1.0000 0.73555  0.15846  0.54974  Biso   1.000  N
  N76      1.0000 0.67540  0.08334  0.55392  Biso   1.000  N
  N77      1.0000 0.26454  0.03802  0.61262  Biso   1.000  N
  N78      1.0000 0.18147  0.09664  0.62882  Biso   1.000  N
  N79      1.0000 0.23908  0.16808  0.65159  Biso   1.000  N
  N80      1.0000 0.36250  0.15742  0.65089  Biso   1.000  N
  N81      1.0000 0.56498  0.19062  0.77171  Biso   1.000  N
  N82      1.0000 0.63357  0.11852  0.77530  Biso   1.000  N
  N83      1.0000 0.68240  0.10458  0.84972  Biso   1.000  N
  N84      1.0000 0.64694  0.16586  0.89593  Biso   1.000  N
  N85      1.0000 0.31897  0.37652  0.82984  Biso   1.000  N
  N86      1.0000 0.24177  0.39182  0.76055  Biso   1.000  N
  N87      1.0000 0.28156  0.35314  0.70288  Biso   1.000  N
  N88      1.0000 0.38822  0.31120  0.73410  Biso   1.000  N
  N89      1.0000 0.41589  0.30341  0.57934  Biso   1.000  N
  N90      1.0000 0.34660  0.26454  0.51602  Biso   1.000  N
  N91      1.0000 0.31190  0.32299  0.46254  Biso   1.000  N
  N92      1.0000 0.35760  0.40048  0.48892  Biso   1.000  N
  N93      1.0000 0.71570  0.45187  0.68612  Biso   1.000  N
  N94      1.0000 0.79150  0.39430  0.73050  Biso   1.000  N
  N95      1.0000 0.73136  0.32324  0.73503  Biso   1.000  N
  N96      1.0000 0.61332  0.33376  0.69423  Biso   1.000  N
  C28      1.0000 0.58620  0.10070  0.59489  Biso   1.000  C
  C29      1.0000 0.49540  0.03785  0.61538  Biso   1.000  C
  H19      1.0000 0.47740  0.99470  0.57300  Biso   1.000  H
  H20      1.0000 0.53400  0.00820  0.66460  Biso   1.000  H
  C30      1.0000 0.37500  0.07755  0.62636  Biso   1.000  C
  C31      1.0000 0.57550  0.21787  0.84597  Biso   1.000  C
  C32      1.0000 0.52030  0.29816  0.87006  Biso   1.000  C
  H21      1.0000 0.49520  0.28920  0.92160  Biso   1.000  H
  H22      1.0000 0.58490  0.34330  0.87680  Biso   1.000  H
  C33      1.0000 0.40890  0.32726  0.81174  Biso   1.000  C
  C34      1.0000 0.42190  0.38580  0.56108  Biso   1.000  C
  C35      1.0000 0.49270  0.45058  0.61489  Biso   1.000  C
  H23      1.0000 0.43770  0.47420  0.64920  Biso   1.000  H
  H24      1.0000 0.51780  0.49780  0.58340  Biso   1.000  H
  C36      1.0000 0.60640  0.41295  0.66458  Biso   1.000  C
