data_image0
_cell_length_a       22.277
_cell_length_b       13.12
_cell_length_c       52.44
_cell_angle_alpha    90
_cell_angle_beta     90
_cell_angle_gamma    90

_symmetry_space_group_name_H-M    "P 1"
_symmetry_int_tables_number       1

loop_
  _symmetry_equiv_pos_as_xyz
  'x, y, z'

loop_
  _atom_site_label
  _atom_site_occupancy
  _atom_site_fract_x
  _atom_site_fract_y
  _atom_site_fract_z
  _atom_site_thermal_displace_type
  _atom_site_B_iso_or_equiv
  _atom_site_type_symbol
  W1       1.0000 0.44509  0.59560  0.75921  Biso   1.000  W
  W2       1.0000 0.32805  0.26160  0.75654  Biso   1.000  W
  W3       1.0000 0.31540  0.73527  0.75740  Biso   1.000  W
  W4       1.0000 0.44710  0.59063  0.68747  Biso   1.000  W
  W5       1.0000 0.39480  0.73797  0.48017  Biso   1.000  W
  W6       1.0000 0.27978  0.41267  0.48538  Biso   1.000  W
  W7       1.0000 0.33238  0.26402  0.69015  Biso   1.000  W
  W8       1.0000 0.28025  0.40058  0.41370  Biso   1.000  W
  W9       1.0000 0.45288  0.34935  0.72554  Biso   1.000  W
  W10      1.0000 0.18677  0.41329  0.75466  Biso   1.000  W
  W11      1.0000 0.19353  0.41192  0.68824  Biso   1.000  W
  W12      1.0000 0.40793  0.27375  0.48750  Biso   1.000  W
  W13      1.0000 0.39774  0.73414  0.41369  Biso   1.000  W
  W14      1.0000 0.53364  0.59050  0.48235  Biso   1.000  W
  W15      1.0000 0.27353  0.65006  0.44581  Biso   1.000  W
  W16      1.0000 0.54172  0.36034  0.45038  Biso   1.000  W
  W17      1.0000 0.18439  0.63884  0.72176  Biso   1.000  W
  W18      1.0000 0.41005  0.26104  0.41576  Biso   1.000  W
  W19      1.0000 0.31888  0.72928  0.68568  Biso   1.000  W
  W20      1.0000 0.53831  0.58196  0.41584  Biso   1.000  W
  W21      1.0000 0.40512  0.48283  0.38100  Biso   1.000  W
  W22      1.0000 0.31927  0.50998  0.79068  Biso   1.000  W
  Dy1      1.0000 0.32579  0.49686  0.64114  Biso   1.000  Dy
  Dy2      1.0000 0.40249  0.50971  0.53047  Biso   1.000  Dy
  P1       1.0000 0.32190  0.50230  0.72240  Biso   1.000  P
  P2       1.0000 0.40470  0.49600  0.44910  Biso   1.000  P
  C1       1.0000 0.26600  0.64800  0.59980  Biso   1.000  C
  C2       1.0000 0.33100  0.67500  0.59480  Biso   1.000  C
  H1       1.0000 0.33880  0.73910  0.60370  Biso   1.000  H
  C3       1.0000 0.33700  0.69600  0.56660  Biso   1.000  C
  H2       1.0000 0.31440  0.75510  0.56080  Biso   1.000  H
  C4       1.0000 0.40400  0.70700  0.56300  Biso   1.000  C
  C5       1.0000 0.31800  0.29800  0.60860  Biso   1.000  C
  C6       1.0000 0.38600  0.31000  0.60470  Biso   1.000  C
  H3       1.0000 0.40730  0.25000  0.61110  Biso   1.000  H
  C7       1.0000 0.39800  0.32600  0.57600  Biso   1.000  C
  H4       1.0000 0.38940  0.26390  0.56620  Biso   1.000  H
  C8       1.0000 0.46340  0.36200  0.57100  Biso   1.000  C
  O1       1.0000 0.29800  0.20800  0.60080  Biso   1.000  O
  O2       1.0000 0.37940  0.60480  0.44820  Biso   1.000  O
  O3       1.0000 0.45760  0.45620  0.75060  Biso   1.000  O
  O4       1.0000 0.34650  0.56300  0.70000  Biso   1.000  O
  O5       1.0000 0.34720  0.39220  0.72280  Biso   1.000  O
  O6       1.0000 0.32020  0.27810  0.48860  Biso   1.000  O
  O7       1.0000 0.25310  0.49770  0.72190  Biso   1.000  O
  O8       1.0000 0.26600  0.54780  0.47250  Biso   1.000  O
  O9       1.0000 0.38220  0.44260  0.47340  Biso   1.000  O
  O10      1.0000 0.45960  0.45200  0.70110  Biso   1.000  O
  O11      1.0000 0.24790  0.31000  0.75500  Biso   1.000  O
  O12      1.0000 0.32390  0.27800  0.40760  Biso   1.000  O
  O13      1.0000 0.27110  0.37630  0.44810  Biso   1.000  O
  O14      1.0000 0.30950  0.46300  0.51470  Biso   1.000  O
  O15      1.0000 0.47670  0.69700  0.47670  Biso   1.000  O
  O16      1.0000 0.39920  0.72300  0.76450  Biso   1.000  O
  O17      1.0000 0.31160  0.72800  0.41930  Biso   1.000  O
  O18      1.0000 0.39470  0.24280  0.45010  Biso   1.000  O
  O19      1.0000 0.32010  0.20040  0.72420  Biso   1.000  O
  O20      1.0000 0.15880  0.37160  0.72260  Biso   1.000  O
  O21      1.0000 0.47260  0.50320  0.44930  Biso   1.000  O
  O22      1.0000 0.41870  0.54700  0.65870  Biso   1.000  O
  O23      1.0000 0.34060  0.55800  0.74700  Biso   1.000  O
  O24      1.0000 0.38430  0.43870  0.42450  Biso   1.000  O
  O25      1.0000 0.40390  0.71500  0.68510  Biso   1.000  O
  O26      1.0000 0.26760  0.54800  0.42110  Biso   1.000  O
  O27      1.0000 0.34940  0.36200  0.66810  Biso   1.000  O
  O28      1.0000 0.48770  0.30600  0.47480  Biso   1.000  O
  O29      1.0000 0.31050  0.73900  0.47030  Biso   1.000  O
  O30      1.0000 0.40670  0.80060  0.44350  Biso   1.000  O
  O31      1.0000 0.33940  0.37400  0.77970  Biso   1.000  O
  O32      1.0000 0.33180  0.75940  0.72330  Biso   1.000  O
  O33      1.0000 0.31060  0.66700  0.65670  Biso   1.000  O
  O34      1.0000 0.41900  0.26140  0.70110  Biso   1.000  O
  O35      1.0000 0.24010  0.69300  0.69710  Biso   1.000  O
  O36      1.0000 0.41840  0.34200  0.51530  Biso   1.000  O
  O37      1.0000 0.48990  0.53400  0.50570  Biso   1.000  O
  O38      1.0000 0.38100  0.64100  0.50310  Biso   1.000  O
  O39      1.0000 0.24780  0.30500  0.69290  Biso   1.000  O
  O40      1.0000 0.24020  0.47180  0.66550  Biso   1.000  O
  O41      1.0000 0.41180  0.26900  0.75090  Biso   1.000  O
  O42      1.0000 0.45250  0.62610  0.72610  Biso   1.000  O
  O43      1.0000 0.23620  0.69400  0.74740  Biso   1.000  O
  O44      1.0000 0.47940  0.68570  0.41490  Biso   1.000  O
  O45      1.0000 0.48970  0.30300  0.42500  Biso   1.000  O
  O46      1.0000 0.38420  0.61700  0.39160  Biso   1.000  O
  O47      1.0000 0.32340  0.44400  0.38290  Biso   1.000  O
  O48      1.0000 0.30300  0.65300  0.78840  Biso   1.000  O
  O49      1.0000 0.24150  0.48100  0.77790  Biso   1.000  O
  O50      1.0000 0.15520  0.54400  0.69830  Biso   1.000  O
  O51      1.0000 0.40190  0.54200  0.78860  Biso   1.000  O
  O52      1.0000 0.42020  0.34400  0.38370  Biso   1.000  O
  O53      1.0000 0.48310  0.51100  0.39380  Biso   1.000  O
  O54      1.0000 0.42300  0.79400  0.57200  Biso   1.000  O
  O55      1.0000 0.56390  0.62500  0.44680  Biso   1.000  O
  O56      1.0000 0.57160  0.44900  0.42360  Biso   1.000  O
  O57      1.0000 0.32610  0.61100  0.55290  Biso   1.000  O
  O58      1.0000 0.22700  0.71000  0.59190  Biso   1.000  O
  O59      1.0000 0.57260  0.46000  0.47410  Biso   1.000  O
  O60      1.0000 0.40340  0.40000  0.61810  Biso   1.000  O
  O61      1.0000 0.15500  0.54700  0.74740  Biso   1.000  O
  O62      1.0000 0.28710  0.35400  0.61830  Biso   1.000  O
  O63      1.0000 0.25340  0.57000  0.61150  Biso   1.000  O
  O64      1.0000 0.47540  0.43600  0.55920  Biso   1.000  O
  O65      1.0000 0.44070  0.64600  0.55320  Biso   1.000  O
  O66      1.0000 0.36370  0.41300  0.56630  Biso   1.000  O
  O67      1.0000 0.37010  0.60000  0.60530  Biso   1.000  O
  O68      1.0000 0.50800  0.30500  0.57820  Biso   1.000  O
  W23      1.0000 0.55491  0.40440  0.25921  Biso   1.000  W
  W24      1.0000 0.67195  0.73840  0.25654  Biso   1.000  W
  W25      1.0000 0.68460  0.26473  0.25740  Biso   1.000  W
  W26      1.0000 0.55290  0.40937  0.18747  Biso   1.000  W
  W27      1.0000 0.60520  0.26203  0.98017  Biso   1.000  W
  W28      1.0000 0.72022  0.58733  0.98538  Biso   1.000  W
  W29      1.0000 0.66762  0.73598  0.19015  Biso   1.000  W
  W30      1.0000 0.71975  0.59942  0.91370  Biso   1.000  W
  W31      1.0000 0.54712  0.65065  0.22554  Biso   1.000  W
  W32      1.0000 0.81323  0.58671  0.25466  Biso   1.000  W
  W33      1.0000 0.80647  0.58808  0.18824  Biso   1.000  W
  W34      1.0000 0.59207  0.72625  0.98750  Biso   1.000  W
  W35      1.0000 0.60226  0.26586  0.91369  Biso   1.000  W
  W36      1.0000 0.46636  0.40950  0.98235  Biso   1.000  W
  W37      1.0000 0.72647  0.34994  0.94581  Biso   1.000  W
  W38      1.0000 0.45828  0.63966  0.95038  Biso   1.000  W
  W39      1.0000 0.81561  0.36116  0.22176  Biso   1.000  W
  W40      1.0000 0.58995  0.73896  0.91576  Biso   1.000  W
  W41      1.0000 0.68112  0.27072  0.18568  Biso   1.000  W
  W42      1.0000 0.46169  0.41804  0.91584  Biso   1.000  W
  W43      1.0000 0.59488  0.51717  0.88100  Biso   1.000  W
  W44      1.0000 0.68073  0.49002  0.29068  Biso   1.000  W
  Dy3      1.0000 0.67421  0.50314  0.14114  Biso   1.000  Dy
  Dy4      1.0000 0.59751  0.49029  0.03047  Biso   1.000  Dy
  P3       1.0000 0.67810  0.49770  0.22240  Biso   1.000  P
  P4       1.0000 0.59530  0.50400  0.94910  Biso   1.000  P
  C9       1.0000 0.73400  0.35200  0.09980  Biso   1.000  C
  C10      1.0000 0.66900  0.32500  0.09480  Biso   1.000  C
  H5       1.0000 0.66120  0.26090  0.10370  Biso   1.000  H
  C11      1.0000 0.66300  0.30400  0.06660  Biso   1.000  C
  H6       1.0000 0.68560  0.24490  0.06080  Biso   1.000  H
  C12      1.0000 0.59600  0.29300  0.06300  Biso   1.000  C
  C13      1.0000 0.68200  0.70200  0.10860  Biso   1.000  C
  C14      1.0000 0.61400  0.69000  0.10470  Biso   1.000  C
  H7       1.0000 0.59270  0.75000  0.11110  Biso   1.000  H
  C15      1.0000 0.60200  0.67400  0.07600  Biso   1.000  C
  H8       1.0000 0.61060  0.73610  0.06620  Biso   1.000  H
  C16      1.0000 0.53660  0.63800  0.07100  Biso   1.000  C
  O69      1.0000 0.70200  0.79200  0.10080  Biso   1.000  O
  O70      1.0000 0.62060  0.39520  0.94820  Biso   1.000  O
  O71      1.0000 0.54240  0.54380  0.25060  Biso   1.000  O
  O72      1.0000 0.65350  0.43700  0.20000  Biso   1.000  O
  O73      1.0000 0.65280  0.60780  0.22280  Biso   1.000  O
  O74      1.0000 0.67980  0.72190  0.98860  Biso   1.000  O
  O75      1.0000 0.74690  0.50230  0.22190  Biso   1.000  O
  O76      1.0000 0.73400  0.45220  0.97250  Biso   1.000  O
  O77      1.0000 0.61780  0.55740  0.97340  Biso   1.000  O
  O78      1.0000 0.54040  0.54800  0.20110  Biso   1.000  O
  O79      1.0000 0.75210  0.69000  0.25500  Biso   1.000  O
  O80      1.0000 0.67610  0.72200  0.90760  Biso   1.000  O
  O81      1.0000 0.72890  0.62370  0.94810  Biso   1.000  O
  O82      1.0000 0.69050  0.53700  0.01470  Biso   1.000  O
  O83      1.0000 0.52330  0.30300  0.97670  Biso   1.000  O
  O84      1.0000 0.60080  0.27700  0.26450  Biso   1.000  O
  O85      1.0000 0.68840  0.27200  0.91930  Biso   1.000  O
  O86      1.0000 0.60530  0.75720  0.95010  Biso   1.000  O
  O87      1.0000 0.67990  0.79960  0.22420  Biso   1.000  O
  O88      1.0000 0.84120  0.62840  0.22260  Biso   1.000  O
  O89      1.0000 0.52740  0.49680  0.94930  Biso   1.000  O
  O90      1.0000 0.58130  0.45300  0.15870  Biso   1.000  O
  O91      1.0000 0.65940  0.44200  0.24700  Biso   1.000  O
  O92      1.0000 0.61570  0.56130  0.92450  Biso   1.000  O
  O93      1.0000 0.59610  0.28500  0.18510  Biso   1.000  O
  O94      1.0000 0.73240  0.45200  0.92110  Biso   1.000  O
  O95      1.0000 0.65060  0.63800  0.16810  Biso   1.000  O
  O96      1.0000 0.51230  0.69400  0.97480  Biso   1.000  O
  O97      1.0000 0.68950  0.26100  0.97030  Biso   1.000  O
  O98      1.0000 0.59330  0.19940  0.94350  Biso   1.000  O
  O99      1.0000 0.66060  0.62600  0.27970  Biso   1.000  O
  O100     1.0000 0.66820  0.24060  0.22330  Biso   1.000  O
  O101     1.0000 0.68940  0.33300  0.15670  Biso   1.000  O
  O102     1.0000 0.58100  0.73860  0.20110  Biso   1.000  O
  O103     1.0000 0.75990  0.30700  0.19710  Biso   1.000  O
  O104     1.0000 0.58160  0.65800  0.01530  Biso   1.000  O
  O105     1.0000 0.51010  0.46600  0.00570  Biso   1.000  O
  O106     1.0000 0.61900  0.35900  0.00310  Biso   1.000  O
  O107     1.0000 0.75220  0.69500  0.19290  Biso   1.000  O
  O108     1.0000 0.75980  0.52820  0.16550  Biso   1.000  O
  O109     1.0000 0.58820  0.73100  0.25090  Biso   1.000  O
  O110     1.0000 0.54750  0.37390  0.22610  Biso   1.000  O
  O111     1.0000 0.76380  0.30600  0.24740  Biso   1.000  O
  O112     1.0000 0.52060  0.31430  0.91490  Biso   1.000  O
  O113     1.0000 0.51030  0.69700  0.92500  Biso   1.000  O
  O114     1.0000 0.61580  0.38300  0.89160  Biso   1.000  O
  O115     1.0000 0.67660  0.55600  0.88290  Biso   1.000  O
  O116     1.0000 0.69700  0.34700  0.28840  Biso   1.000  O
  O117     1.0000 0.75850  0.51900  0.27790  Biso   1.000  O
  O118     1.0000 0.84480  0.45600  0.19830  Biso   1.000  O
  O119     1.0000 0.59810  0.45800  0.28860  Biso   1.000  O
  O120     1.0000 0.57980  0.65600  0.88370  Biso   1.000  O
  O121     1.0000 0.51690  0.48900  0.89380  Biso   1.000  O
  O122     1.0000 0.57700  0.20600  0.07200  Biso   1.000  O
  O123     1.0000 0.43610  0.37500  0.94680  Biso   1.000  O
  O124     1.0000 0.42840  0.55100  0.92360  Biso   1.000  O
  O125     1.0000 0.67390  0.38900  0.05290  Biso   1.000  O
  O126     1.0000 0.77300  0.29000  0.09190  Biso   1.000  O
  O127     1.0000 0.42740  0.54000  0.97410  Biso   1.000  O
  O128     1.0000 0.59660  0.60000  0.11810  Biso   1.000  O
  O129     1.0000 0.84500  0.45300  0.24740  Biso   1.000  O
  O130     1.0000 0.71290  0.64600  0.11830  Biso   1.000  O
  O131     1.0000 0.74660  0.43000  0.11150  Biso   1.000  O
  O132     1.0000 0.52460  0.56400  0.05920  Biso   1.000  O
  O133     1.0000 0.55930  0.35400  0.05320  Biso   1.000  O
  O134     1.0000 0.63630  0.58700  0.06630  Biso   1.000  O
  O135     1.0000 0.62990  0.40000  0.10530  Biso   1.000  O
  O136     1.0000 0.49200  0.69500  0.07820  Biso   1.000  O
  W45      1.0000 0.94509  0.90440  0.75921  Biso   1.000  W
  W46      1.0000 0.82805  0.23840  0.75654  Biso   1.000  W
  W47      1.0000 0.81540  0.76473  0.75740  Biso   1.000  W
  W48      1.0000 0.94710  0.90937  0.68747  Biso   1.000  W
  W49      1.0000 0.89480  0.76203  0.48017  Biso   1.000  W
  W50      1.0000 0.77978  0.08733  0.48538  Biso   1.000  W
  W51      1.0000 0.83238  0.23598  0.69015  Biso   1.000  W
  W52      1.0000 0.78025  0.09942  0.41370  Biso   1.000  W
  W53      1.0000 0.95288  0.15065  0.72554  Biso   1.000  W
  W54      1.0000 0.68677  0.08671  0.75466  Biso   1.000  W
  W55      1.0000 0.69353  0.08808  0.68824  Biso   1.000  W
  W56      1.0000 0.90793  0.22625  0.48750  Biso   1.000  W
  W57      1.0000 0.89774  0.76586  0.41369  Biso   1.000  W
  W58      1.0000 0.03364  0.90950  0.48235  Biso   1.000  W
  W59      1.0000 0.77353  0.84994  0.44581  Biso   1.000  W
  W60      1.0000 0.04172  0.13966  0.45038  Biso   1.000  W
  W61      1.0000 0.68439  0.86116  0.72176  Biso   1.000  W
  W62      1.0000 0.91005  0.23896  0.41576  Biso   1.000  W
  W63      1.0000 0.81888  0.77072  0.68568  Biso   1.000  W
  W64      1.0000 0.03831  0.91804  0.41584  Biso   1.000  W
  W65      1.0000 0.90512  0.01717  0.38100  Biso   1.000  W
  W66      1.0000 0.81927  0.99002  0.79068  Biso   1.000  W
  Dy5      1.0000 0.82579  0.00314  0.64114  Biso   1.000  Dy
  Dy6      1.0000 0.90249  0.99029  0.53047  Biso   1.000  Dy
  P5       1.0000 0.82190  0.99770  0.72240  Biso   1.000  P
  P6       1.0000 0.90470  0.00400  0.44910  Biso   1.000  P
  C17      1.0000 0.76600  0.85200  0.59980  Biso   1.000  C
  C18      1.0000 0.83100  0.82500  0.59480  Biso   1.000  C
  H9       1.0000 0.83880  0.76090  0.60370  Biso   1.000  H
  C19      1.0000 0.83700  0.80400  0.56660  Biso   1.000  C
  H10      1.0000 0.81440  0.74490  0.56080  Biso   1.000  H
  C20      1.0000 0.90400  0.79300  0.56300  Biso   1.000  C
  C21      1.0000 0.81800  0.20200  0.60860  Biso   1.000  C
  C22      1.0000 0.88600  0.19000  0.60470  Biso   1.000  C
  H11      1.0000 0.90730  0.25000  0.61110  Biso   1.000  H
  C23      1.0000 0.89800  0.17400  0.57600  Biso   1.000  C
  H12      1.0000 0.88940  0.23610  0.56620  Biso   1.000  H
  C24      1.0000 0.96340  0.13800  0.57100  Biso   1.000  C
  O137     1.0000 0.79800  0.29200  0.60080  Biso   1.000  O
  O138     1.0000 0.87940  0.89520  0.44820  Biso   1.000  O
  O139     1.0000 0.95760  0.04380  0.75060  Biso   1.000  O
  O140     1.0000 0.84650  0.93700  0.70000  Biso   1.000  O
  O141     1.0000 0.84720  0.10780  0.72280  Biso   1.000  O
  O142     1.0000 0.82020  0.22190  0.48860  Biso   1.000  O
  O143     1.0000 0.75310  0.00230  0.72190  Biso   1.000  O
  O144     1.0000 0.76600  0.95220  0.47250  Biso   1.000  O
  O145     1.0000 0.88220  0.05740  0.47340  Biso   1.000  O
  O146     1.0000 0.95960  0.04800  0.70110  Biso   1.000  O
  O147     1.0000 0.74790  0.19000  0.75500  Biso   1.000  O
  O148     1.0000 0.82390  0.22200  0.40760  Biso   1.000  O
  O149     1.0000 0.77110  0.12370  0.44810  Biso   1.000  O
  O150     1.0000 0.80950  0.03700  0.51470  Biso   1.000  O
  O151     1.0000 0.97670  0.80300  0.47670  Biso   1.000  O
  O152     1.0000 0.89920  0.77700  0.76450  Biso   1.000  O
  O153     1.0000 0.81160  0.77200  0.41930  Biso   1.000  O
  O154     1.0000 0.89470  0.25720  0.45010  Biso   1.000  O
  O155     1.0000 0.82010  0.29960  0.72420  Biso   1.000  O
  O156     1.0000 0.65880  0.12840  0.72260  Biso   1.000  O
  O157     1.0000 0.97260  0.99680  0.44930  Biso   1.000  O
  O158     1.0000 0.91870  0.95300  0.65870  Biso   1.000  O
  O159     1.0000 0.84060  0.94200  0.74700  Biso   1.000  O
  O160     1.0000 0.88430  0.06130  0.42450  Biso   1.000  O
  O161     1.0000 0.90390  0.78500  0.68510  Biso   1.000  O
  O162     1.0000 0.76760  0.95200  0.42110  Biso   1.000  O
  O163     1.0000 0.84940  0.13800  0.66810  Biso   1.000  O
  O164     1.0000 0.98770  0.19400  0.47480  Biso   1.000  O
  O165     1.0000 0.81050  0.76100  0.47030  Biso   1.000  O
  O166     1.0000 0.90670  0.69940  0.44350  Biso   1.000  O
  O167     1.0000 0.83940  0.12600  0.77970  Biso   1.000  O
  O168     1.0000 0.83180  0.74060  0.72330  Biso   1.000  O
  O169     1.0000 0.81060  0.83300  0.65670  Biso   1.000  O
  O170     1.0000 0.91900  0.23860  0.70110  Biso   1.000  O
  O171     1.0000 0.74010  0.80700  0.69710  Biso   1.000  O
  O172     1.0000 0.91840  0.15800  0.51530  Biso   1.000  O
  O173     1.0000 0.98990  0.96600  0.50570  Biso   1.000  O
  O174     1.0000 0.88100  0.85900  0.50310  Biso   1.000  O
  O175     1.0000 0.74780  0.19500  0.69290  Biso   1.000  O
  O176     1.0000 0.74020  0.02820  0.66550  Biso   1.000  O
  O177     1.0000 0.91180  0.23100  0.75090  Biso   1.000  O
  O178     1.0000 0.95250  0.87390  0.72610  Biso   1.000  O
  O179     1.0000 0.73620  0.80600  0.74740  Biso   1.000  O
  O180     1.0000 0.97940  0.81430  0.41490  Biso   1.000  O
  O181     1.0000 0.98970  0.19700  0.42500  Biso   1.000  O
  O182     1.0000 0.88420  0.88300  0.39160  Biso   1.000  O
  O183     1.0000 0.82340  0.05600  0.38290  Biso   1.000  O
  O184     1.0000 0.80300  0.84700  0.78840  Biso   1.000  O
  O185     1.0000 0.74150  0.01900  0.77790  Biso   1.000  O
  O186     1.0000 0.65520  0.95600  0.69830  Biso   1.000  O
  O187     1.0000 0.90190  0.95800  0.78860  Biso   1.000  O
  O188     1.0000 0.92020  0.15600  0.38370  Biso   1.000  O
  O189     1.0000 0.98310  0.98900  0.39380  Biso   1.000  O
  O190     1.0000 0.92300  0.70600  0.57200  Biso   1.000  O
  O191     1.0000 0.06390  0.87500  0.44680  Biso   1.000  O
  O192     1.0000 0.07160  0.05100  0.42360  Biso   1.000  O
  O193     1.0000 0.82610  0.88900  0.55290  Biso   1.000  O
  O194     1.0000 0.72700  0.79000  0.59190  Biso   1.000  O
  O195     1.0000 0.07260  0.04000  0.47410  Biso   1.000  O
  O196     1.0000 0.90340  0.10000  0.61810  Biso   1.000  O
  O197     1.0000 0.65500  0.95300  0.74740  Biso   1.000  O
  O198     1.0000 0.78710  0.14600  0.61830  Biso   1.000  O
  O199     1.0000 0.75340  0.93000  0.61150  Biso   1.000  O
  O200     1.0000 0.97540  0.06400  0.55920  Biso   1.000  O
  O201     1.0000 0.94070  0.85400  0.55320  Biso   1.000  O
  O202     1.0000 0.86370  0.08700  0.56630  Biso   1.000  O
  O203     1.0000 0.87010  0.90000  0.60530  Biso   1.000  O
  O204     1.0000 0.00800  0.19500  0.57820  Biso   1.000  O
  W67      1.0000 0.05491  0.09560  0.25921  Biso   1.000  W
  W68      1.0000 0.17195  0.76160  0.25654  Biso   1.000  W
  W69      1.0000 0.18460  0.23527  0.25740  Biso   1.000  W
  W70      1.0000 0.05290  0.09063  0.18747  Biso   1.000  W
  W71      1.0000 0.10520  0.23797  0.98017  Biso   1.000  W
  W72      1.0000 0.22022  0.91267  0.98538  Biso   1.000  W
  W73      1.0000 0.16762  0.76402  0.19015  Biso   1.000  W
  W74      1.0000 0.21975  0.90058  0.91370  Biso   1.000  W
  W75      1.0000 0.04712  0.84935  0.22554  Biso   1.000  W
  W76      1.0000 0.31323  0.91329  0.25466  Biso   1.000  W
  W77      1.0000 0.30647  0.91192  0.18824  Biso   1.000  W
  W78      1.0000 0.09207  0.77375  0.98750  Biso   1.000  W
  W79      1.0000 0.10226  0.23414  0.91369  Biso   1.000  W
  W80      1.0000 0.96636  0.09050  0.98235  Biso   1.000  W
  W81      1.0000 0.22647  0.15006  0.94581  Biso   1.000  W
  W82      1.0000 0.95828  0.86034  0.95038  Biso   1.000  W
  W83      1.0000 0.31561  0.13884  0.22176  Biso   1.000  W
  W84      1.0000 0.08995  0.76104  0.91576  Biso   1.000  W
  W85      1.0000 0.18112  0.22928  0.18568  Biso   1.000  W
  W86      1.0000 0.96169  0.08196  0.91584  Biso   1.000  W
  W87      1.0000 0.09488  0.98283  0.88100  Biso   1.000  W
  W88      1.0000 0.18073  0.00998  0.29068  Biso   1.000  W
  Dy7      1.0000 0.17421  0.99686  0.14114  Biso   1.000  Dy
  Dy8      1.0000 0.09751  0.00971  0.03047  Biso   1.000  Dy
  P7       1.0000 0.17810  0.00230  0.22240  Biso   1.000  P
  P8       1.0000 0.09530  0.99600  0.94910  Biso   1.000  P
  C25      1.0000 0.23400  0.14800  0.09980  Biso   1.000  C
  C26      1.0000 0.16900  0.17500  0.09480  Biso   1.000  C
  H13      1.0000 0.16120  0.23910  0.10370  Biso   1.000  H
  C27      1.0000 0.16300  0.19600  0.06660  Biso   1.000  C
  H14      1.0000 0.18560  0.25510  0.06080  Biso   1.000  H
  C28      1.0000 0.09600  0.20700  0.06300  Biso   1.000  C
  C29      1.0000 0.18200  0.79800  0.10860  Biso   1.000  C
  C30      1.0000 0.11400  0.81000  0.10470  Biso   1.000  C
  H15      1.0000 0.09270  0.75000  0.11110  Biso   1.000  H
  C31      1.0000 0.10200  0.82600  0.07600  Biso   1.000  C
  H16      1.0000 0.11060  0.76390  0.06620  Biso   1.000  H
  C32      1.0000 0.03660  0.86200  0.07100  Biso   1.000  C
  O205     1.0000 0.20200  0.70800  0.10080  Biso   1.000  O
  O206     1.0000 0.12060  0.10480  0.94820  Biso   1.000  O
  O207     1.0000 0.04240  0.95620  0.25060  Biso   1.000  O
  O208     1.0000 0.15350  0.06300  0.20000  Biso   1.000  O
  O209     1.0000 0.15280  0.89220  0.22280  Biso   1.000  O
  O210     1.0000 0.17980  0.77810  0.98860  Biso   1.000  O
  O211     1.0000 0.24690  0.99770  0.22190  Biso   1.000  O
  O212     1.0000 0.23400  0.04780  0.97250  Biso   1.000  O
  O213     1.0000 0.11780  0.94260  0.97340  Biso   1.000  O
  O214     1.0000 0.04040  0.95200  0.20110  Biso   1.000  O
  O215     1.0000 0.25210  0.81000  0.25500  Biso   1.000  O
  O216     1.0000 0.17610  0.77800  0.90760  Biso   1.000  O
  O217     1.0000 0.22890  0.87630  0.94810  Biso   1.000  O
  O218     1.0000 0.19050  0.96300  0.01470  Biso   1.000  O
  O219     1.0000 0.02330  0.19700  0.97670  Biso   1.000  O
  O220     1.0000 0.10080  0.22300  0.26450  Biso   1.000  O
  O221     1.0000 0.18840  0.22800  0.91930  Biso   1.000  O
  O222     1.0000 0.10530  0.74280  0.95010  Biso   1.000  O
  O223     1.0000 0.17990  0.70040  0.22420  Biso   1.000  O
  O224     1.0000 0.34120  0.87160  0.22260  Biso   1.000  O
  O225     1.0000 0.02740  0.00320  0.94930  Biso   1.000  O
  O226     1.0000 0.08130  0.04700  0.15870  Biso   1.000  O
  O227     1.0000 0.15940  0.05800  0.24700  Biso   1.000  O
  O228     1.0000 0.11570  0.93870  0.92450  Biso   1.000  O
  O229     1.0000 0.09610  0.21500  0.18510  Biso   1.000  O
  O230     1.0000 0.23240  0.04800  0.92110  Biso   1.000  O
  O231     1.0000 0.15060  0.86200  0.16810  Biso   1.000  O
  O232     1.0000 0.01230  0.80600  0.97480  Biso   1.000  O
  O233     1.0000 0.18950  0.23900  0.97030  Biso   1.000  O
  O234     1.0000 0.09330  0.30060  0.94350  Biso   1.000  O
  O235     1.0000 0.16060  0.87400  0.27970  Biso   1.000  O
  O236     1.0000 0.16820  0.25940  0.22330  Biso   1.000  O
  O237     1.0000 0.18940  0.16700  0.15670  Biso   1.000  O
  O238     1.0000 0.08100  0.76140  0.20110  Biso   1.000  O
  O239     1.0000 0.25990  0.19300  0.19710  Biso   1.000  O
  O240     1.0000 0.08160  0.84200  0.01530  Biso   1.000  O
  O241     1.0000 0.01010  0.03400  0.00570  Biso   1.000  O
  O242     1.0000 0.11900  0.14100  0.00310  Biso   1.000  O
  O243     1.0000 0.25220  0.80500  0.19290  Biso   1.000  O
  O244     1.0000 0.25980  0.97180  0.16550  Biso   1.000  O
  O245     1.0000 0.08820  0.76900  0.25090  Biso   1.000  O
  O246     1.0000 0.04750  0.12610  0.22610  Biso   1.000  O
  O247     1.0000 0.26380  0.19400  0.24740  Biso   1.000  O
  O248     1.0000 0.02060  0.18570  0.91490  Biso   1.000  O
  O249     1.0000 0.01030  0.80300  0.92500  Biso   1.000  O
  O250     1.0000 0.11580  0.11700  0.89160  Biso   1.000  O
  O251     1.0000 0.17660  0.94400  0.88290  Biso   1.000  O
  O252     1.0000 0.19700  0.15300  0.28840  Biso   1.000  O
  O253     1.0000 0.25850  0.98100  0.27790  Biso   1.000  O
  O254     1.0000 0.34480  0.04400  0.19830  Biso   1.000  O
  O255     1.0000 0.09810  0.04200  0.28860  Biso   1.000  O
  O256     1.0000 0.07980  0.84400  0.88370  Biso   1.000  O
  O257     1.0000 0.01690  0.01100  0.89380  Biso   1.000  O
  O258     1.0000 0.07700  0.29400  0.07200  Biso   1.000  O
  O259     1.0000 0.93610  0.12500  0.94680  Biso   1.000  O
  O260     1.0000 0.92840  0.94900  0.92360  Biso   1.000  O
  O261     1.0000 0.17390  0.11100  0.05290  Biso   1.000  O
  O262     1.0000 0.27300  0.21000  0.09190  Biso   1.000  O
  O263     1.0000 0.92740  0.96000  0.97410  Biso   1.000  O
  O264     1.0000 0.09660  0.90000  0.11810  Biso   1.000  O
  O265     1.0000 0.34500  0.04700  0.24740  Biso   1.000  O
  O266     1.0000 0.21290  0.85400  0.11830  Biso   1.000  O
  O267     1.0000 0.24660  0.07000  0.11150  Biso   1.000  O
  O268     1.0000 0.02460  0.93600  0.05920  Biso   1.000  O
  O269     1.0000 0.05930  0.14600  0.05320  Biso   1.000  O
  O270     1.0000 0.13630  0.91300  0.06630  Biso   1.000  O
  O271     1.0000 0.12990  0.10000  0.10530  Biso   1.000  O
  O272     1.0000 0.99200  0.80500  0.07820  Biso   1.000  O
