data_image0
_cell_length_a       9.7196
_cell_length_b       9.7196
_cell_length_c       16.5761
_cell_angle_alpha    90
_cell_angle_beta     90
_cell_angle_gamma    90

_symmetry_space_group_name_H-M    "P 1"
_symmetry_int_tables_number       1

loop_
  _symmetry_equiv_pos_as_xyz
  'x, y, z'

loop_
  _atom_site_label
  _atom_site_occupancy
  _atom_site_fract_x
  _atom_site_fract_y
  _atom_site_fract_z
  _atom_site_thermal_displace_type
  _atom_site_B_iso_or_equiv
  _atom_site_type_symbol
  C1       1.0000 0.16399  0.23491  0.18746  Biso   1.000  C
  H1       1.0000 0.10570  0.22670  0.14320  Biso   1.000  H
  C2       1.0000 0.83601  0.76509  0.18746  Biso   1.000  C
  H2       1.0000 0.89430  0.77330  0.14320  Biso   1.000  H
  C3       1.0000 0.76509  0.16399  0.18746  Biso   1.000  C
  H3       1.0000 0.77330  0.10570  0.14320  Biso   1.000  H
  C4       1.0000 0.23491  0.83601  0.18746  Biso   1.000  C
  H4       1.0000 0.22670  0.89430  0.14320  Biso   1.000  H
  C5       1.0000 0.83601  0.23491  0.31254  Biso   1.000  C
  H5       1.0000 0.89430  0.22670  0.35680  Biso   1.000  H
  C6       1.0000 0.16399  0.76509  0.31254  Biso   1.000  C
  H6       1.0000 0.10570  0.77330  0.35680  Biso   1.000  H
  C7       1.0000 0.23491  0.16399  0.31254  Biso   1.000  C
  H7       1.0000 0.22670  0.10570  0.35680  Biso   1.000  H
  C8       1.0000 0.76509  0.83601  0.31254  Biso   1.000  C
  H8       1.0000 0.77330  0.89430  0.35680  Biso   1.000  H
  C9       1.0000 0.33601  0.26509  0.31254  Biso   1.000  C
  H9       1.0000 0.39430  0.27330  0.35680  Biso   1.000  H
  C10      1.0000 0.66399  0.73491  0.31254  Biso   1.000  C
  H10      1.0000 0.60570  0.72670  0.35680  Biso   1.000  H
  C11      1.0000 0.73491  0.33601  0.31254  Biso   1.000  C
  H11      1.0000 0.72670  0.39430  0.35680  Biso   1.000  H
  C12      1.0000 0.26509  0.66399  0.31254  Biso   1.000  C
  H12      1.0000 0.27330  0.60570  0.35680  Biso   1.000  H
  C13      1.0000 0.66399  0.26509  0.18746  Biso   1.000  C
  H13      1.0000 0.60570  0.27330  0.14320  Biso   1.000  H
  C14      1.0000 0.33601  0.73491  0.18746  Biso   1.000  C
  H14      1.0000 0.39430  0.72670  0.14320  Biso   1.000  H
  C15      1.0000 0.26509  0.33601  0.18746  Biso   1.000  C
  H15      1.0000 0.27330  0.39430  0.14320  Biso   1.000  H
  C16      1.0000 0.73491  0.66399  0.18746  Biso   1.000  C
  H16      1.0000 0.72670  0.60570  0.14320  Biso   1.000  H
  Cu1      1.0000 0.00000  0.00000  0.25000  Biso   1.000  Cu
  Cu2      1.0000 0.50000  0.50000  0.25000  Biso   1.000  Cu
  N1       1.0000 0.14916  0.14916  0.25000  Biso   1.000  N
  N2       1.0000 0.85084  0.85084  0.25000  Biso   1.000  N
  N3       1.0000 0.85084  0.14916  0.25000  Biso   1.000  N
  N4       1.0000 0.14916  0.85084  0.25000  Biso   1.000  N
  N5       1.0000 0.35084  0.35084  0.25000  Biso   1.000  N
  N6       1.0000 0.64916  0.64916  0.25000  Biso   1.000  N
  N7       1.0000 0.64916  0.35084  0.25000  Biso   1.000  N
  N8       1.0000 0.35084  0.64916  0.25000  Biso   1.000  N
  C17      1.0000 0.66399  0.73491  0.68746  Biso   1.000  C
  H17      1.0000 0.60570  0.72670  0.64320  Biso   1.000  H
  C18      1.0000 0.33601  0.26509  0.68746  Biso   1.000  C
  H18      1.0000 0.39430  0.27330  0.64320  Biso   1.000  H
  C19      1.0000 0.26509  0.66399  0.68746  Biso   1.000  C
  H19      1.0000 0.27330  0.60570  0.64320  Biso   1.000  H
  C20      1.0000 0.73491  0.33601  0.68746  Biso   1.000  C
  H20      1.0000 0.72670  0.39430  0.64320  Biso   1.000  H
  C21      1.0000 0.33601  0.73491  0.81254  Biso   1.000  C
  H21      1.0000 0.39430  0.72670  0.85680  Biso   1.000  H
  C22      1.0000 0.66399  0.26509  0.81254  Biso   1.000  C
  H22      1.0000 0.60570  0.27330  0.85680  Biso   1.000  H
  C23      1.0000 0.73491  0.66399  0.81254  Biso   1.000  C
  H23      1.0000 0.72670  0.60570  0.85680  Biso   1.000  H
  C24      1.0000 0.26509  0.33601  0.81254  Biso   1.000  C
  H24      1.0000 0.27330  0.39430  0.85680  Biso   1.000  H
  C25      1.0000 0.83601  0.76509  0.81254  Biso   1.000  C
  H25      1.0000 0.89430  0.77330  0.85680  Biso   1.000  H
  C26      1.0000 0.16399  0.23491  0.81254  Biso   1.000  C
  H26      1.0000 0.10570  0.22670  0.85680  Biso   1.000  H
  C27      1.0000 0.23491  0.83601  0.81254  Biso   1.000  C
  H27      1.0000 0.22670  0.89430  0.85680  Biso   1.000  H
  C28      1.0000 0.76509  0.16399  0.81254  Biso   1.000  C
  H28      1.0000 0.77330  0.10570  0.85680  Biso   1.000  H
  C29      1.0000 0.16399  0.76509  0.68746  Biso   1.000  C
  H29      1.0000 0.10570  0.77330  0.64320  Biso   1.000  H
  C30      1.0000 0.83601  0.23491  0.68746  Biso   1.000  C
  H30      1.0000 0.89430  0.22670  0.64320  Biso   1.000  H
  C31      1.0000 0.76509  0.83601  0.68746  Biso   1.000  C
  H31      1.0000 0.77330  0.89430  0.64320  Biso   1.000  H
  C32      1.0000 0.23491  0.16399  0.68746  Biso   1.000  C
  H32      1.0000 0.22670  0.10570  0.64320  Biso   1.000  H
  Cu3      1.0000 0.50000  0.50000  0.75000  Biso   1.000  Cu
  Cu4      1.0000 0.00000  0.00000  0.75000  Biso   1.000  Cu
  N9       1.0000 0.64916  0.64916  0.75000  Biso   1.000  N
  N10      1.0000 0.35084  0.35084  0.75000  Biso   1.000  N
  N11      1.0000 0.35084  0.64916  0.75000  Biso   1.000  N
  N12      1.0000 0.64916  0.35084  0.75000  Biso   1.000  N
  N13      1.0000 0.85084  0.85084  0.75000  Biso   1.000  N
  N14      1.0000 0.14916  0.14916  0.75000  Biso   1.000  N
  N15      1.0000 0.14916  0.85084  0.75000  Biso   1.000  N
  N16      1.0000 0.85084  0.14916  0.75000  Biso   1.000  N
