data_cg300256k_si_004_clean
_audit_creation_date              2015-08-19
_audit_creation_method            'Materials Studio'
_symmetry_space_group_name_H-M    'P1'
_symmetry_Int_Tables_number       1
_symmetry_cell_setting            triclinic
loop_
_symmetry_equiv_pos_as_xyz
  x,y,z
_cell_length_a                    7.8102
_cell_length_b                    17.9157
_cell_length_c                    19.4048
_cell_angle_alpha                 90.0000
_cell_angle_beta                  90.0000
_cell_angle_gamma                 100.2250
loop_
_atom_site_label
_atom_site_type_symbol
_atom_site_fract_x
_atom_site_fract_y
_atom_site_fract_z
_atom_site_U_iso_or_equiv
_atom_site_adp_type
_atom_site_occupancy
Eu1    Eu    0.24526   0.98524   0.96911   0.01267  Uiso   1.00
Eu2    Eu    0.75474   0.01476   0.03089   0.01267  Uiso   1.00
H1     H     0.77050   0.50510   0.16500   0.01267  Uiso   1.00
H2     H     0.98320   0.78370   0.26870   0.01267  Uiso   1.00
H3     H     0.22950   0.49490   0.83500   0.01267  Uiso   1.00
H4     H     0.03640   0.17710   0.52990   0.01267  Uiso   1.00
H5     H     0.24280   0.87260   0.20650   0.01267  Uiso   1.00
H6     H     0.51780   0.69500   0.79000   0.01267  Uiso   1.00
H7     H     0.99540   0.02570   0.79660   0.01267  Uiso   1.00
H8     H     0.04180   0.10990   0.82210   0.01267  Uiso   1.00
H9     H     0.55250   0.18470   0.11470   0.01267  Uiso   1.00
H10    H     0.48220   0.30500   0.21000   0.01267  Uiso   1.00
H11    H     0.75720   0.12740   0.79350   0.01267  Uiso   1.00
H12    H     0.55230   0.37630   0.01620   0.01267  Uiso   1.00
H13    H     0.00460   0.97430   0.20340   0.01267  Uiso   1.00
H14    H     0.39460   0.78190   0.95830   0.01267  Uiso   1.00
H15    H     0.88680   0.74480   0.37800   0.01267  Uiso   1.00
H16    H     0.76690   0.02390   0.64970   0.01267  Uiso   1.00
H17    H     0.34990   0.58140   0.75450   0.01267  Uiso   1.00
H18    H     0.44750   0.81530   0.88530   0.01267  Uiso   1.00
H19    H     0.11320   0.25520   0.62200   0.01267  Uiso   1.00
H20    H     0.01680   0.21630   0.73130   0.01267  Uiso   1.00
H21    H     0.23310   0.97610   0.35030   0.01267  Uiso   1.00
H22    H     0.60540   0.21810   0.04170   0.01267  Uiso   1.00
H23    H     0.28330   0.95600   0.23460   0.01267  Uiso   1.00
H24    H     0.66000   0.73440   0.96300   0.01267  Uiso   1.00
H25    H     0.44770   0.62370   0.98380   0.01267  Uiso   1.00
H26    H     0.96360   0.82290   0.47010   0.01267  Uiso   1.00
H27    H     0.71670   0.04400   0.76540   0.01267  Uiso   1.00
H28    H     0.34000   0.26560   0.03700   0.01267  Uiso   1.00
H29    H     0.29980   0.23660   0.11260   0.01267  Uiso   1.00
H30    H     0.70020   0.76340   0.88740   0.01267  Uiso   1.00
H31    H     0.65010   0.41860   0.24550   0.01267  Uiso   1.00
H32    H     0.95820   0.89010   0.17790   0.01267  Uiso   1.00
C1     C     0.98480   0.18509   0.69350   0.01267  Uiso   1.00
C2     C     0.58090   0.87585   0.96216   0.01267  Uiso   1.00
C3     C     0.52890   0.34138   0.17770   0.01267  Uiso   1.00
C4     C     0.41910   0.12415   0.03784   0.01267  Uiso   1.00
C5     C     0.49720   0.32835   0.10811   0.01267  Uiso   1.00
C6     C     0.47110   0.65862   0.82230   0.01267  Uiso   1.00
C7     C     0.16280   0.92877   0.35562   0.01267  Uiso   1.00
C8     C     0.11550   0.95773   0.11147   0.01267  Uiso   1.00
C9     C     0.63010   0.40870   0.19885   0.01267  Uiso   1.00
C10    C     0.19190   0.91220   0.22847   0.01267  Uiso   1.00
C11    C     0.39260   0.25568   0.08057   0.01267  Uiso   1.00
C12    C     0.42770   0.61574   0.93689   0.01267  Uiso   1.00
C13    C     0.49290   0.80363   0.92976   0.01267  Uiso   1.00
C14    C     0.50280   0.67165   0.89189   0.01267  Uiso   1.00
C15    C     0.04280   0.20811   0.62841   0.01267  Uiso   1.00
C16    C     0.80810   0.08780   0.77153   0.01267  Uiso   1.00
C17    C     0.29960   0.53960   0.84953   0.01267  Uiso   1.00
C18    C     0.83720   0.07123   0.64438   0.01267  Uiso   1.00
C19    C     0.01520   0.81491   0.30650   0.01267  Uiso   1.00
C20    C     0.60740   0.74432   0.91943   0.01267  Uiso   1.00
C21    C     0.94810   0.06661   0.81800   0.01267  Uiso   1.00
C22    C     0.88450   0.04227   0.88853   0.01267  Uiso   1.00
C23    C     0.70040   0.46040   0.15047   0.01267  Uiso   1.00
C24    C     0.12130   0.88477   0.29797   0.01267  Uiso   1.00
C25    C     0.57230   0.38426   0.06311   0.01267  Uiso   1.00
C26    C     0.05190   0.93339   0.18200   0.01267  Uiso   1.00
C27    C     0.99590   0.16127   0.57352   0.01267  Uiso   1.00
C28    C     0.36990   0.59130   0.80115   0.01267  Uiso   1.00
C29    C     0.95720   0.79189   0.37159   0.01267  Uiso   1.00
C30    C     0.50710   0.19637   0.07024   0.01267  Uiso   1.00
C31    C     0.00410   0.83873   0.42648   0.01267  Uiso   1.00
C32    C     0.87870   0.11523   0.70203   0.01267  Uiso   1.00
N1     N     0.10690   0.90699   0.41952   0.01267  Uiso   1.00
N2     N     0.67240   0.44939   0.08289   0.01267  Uiso   1.00
N3     N     0.89310   0.09301   0.58048   0.01267  Uiso   1.00
N4     N     0.32760   0.55061   0.91711   0.01267  Uiso   1.00
O1     O     0.98670   0.01793   0.93057   0.01267  Uiso   1.00
O2     O     0.50720   0.07152   0.02846   0.01267  Uiso   1.00
O3     O     0.26580   0.95302   0.09214   0.01267  Uiso   1.00
O4     O     0.26420   0.11413   0.01851   0.01267  Uiso   1.00
O5     O     0.73420   0.04698   0.90786   0.01267  Uiso   1.00
O6     O     0.49280   0.92848   0.97154   0.01267  Uiso   1.00
O7     O     0.73580   0.88587   0.98149   0.01267  Uiso   1.00
O8     O     0.01330   0.98207   0.06943   0.01267  Uiso   1.00
Eu3    Eu    0.24526   0.48524   0.53089   0.01267  Uiso   1.00
Eu4    Eu    0.75474   0.51476   0.46911   0.01267  Uiso   1.00
H33    H     0.55230   0.87630   0.48380   0.01267  Uiso   1.00
H34    H     0.99540   0.52570   0.70340   0.01267  Uiso   1.00
H35    H     0.04180   0.60990   0.67790   0.01267  Uiso   1.00
H36    H     0.71670   0.54400   0.73460   0.01267  Uiso   1.00
H37    H     0.44750   0.31530   0.61470   0.01267  Uiso   1.00
H38    H     0.60540   0.71810   0.45830   0.01267  Uiso   1.00
H39    H     0.75720   0.62740   0.70650   0.01267  Uiso   1.00
H40    H     0.96360   0.32290   0.02990   0.01267  Uiso   1.00
H41    H     0.29980   0.73660   0.38740   0.01267  Uiso   1.00
H42    H     0.39460   0.28190   0.54170   0.01267  Uiso   1.00
H43    H     0.01680   0.71630   0.76870   0.01267  Uiso   1.00
H44    H     0.77050   0.00510   0.33500   0.01267  Uiso   1.00
H45    H     0.48220   0.80500   0.29000   0.01267  Uiso   1.00
H46    H     0.24280   0.37260   0.29350   0.01267  Uiso   1.00
H47    H     0.28330   0.45600   0.26540   0.01267  Uiso   1.00
H48    H     0.11320   0.75520   0.87800   0.01267  Uiso   1.00
H49    H     0.34990   0.08140   0.74550   0.01267  Uiso   1.00
H50    H     0.51780   0.19500   0.71000   0.01267  Uiso   1.00
H51    H     0.65010   0.91860   0.25450   0.01267  Uiso   1.00
H52    H     0.22950   0.99490   0.66500   0.01267  Uiso   1.00
H53    H     0.03640   0.67710   0.97010   0.01267  Uiso   1.00
H54    H     0.95820   0.39010   0.32210   0.01267  Uiso   1.00
H55    H     0.88680   0.24480   0.12200   0.01267  Uiso   1.00
H56    H     0.23310   0.47610   0.14970   0.01267  Uiso   1.00
H57    H     0.98320   0.28370   0.23130   0.01267  Uiso   1.00
H58    H     0.00460   0.47430   0.29660   0.01267  Uiso   1.00
H59    H     0.55250   0.68470   0.38530   0.01267  Uiso   1.00
H60    H     0.70020   0.26340   0.61260   0.01267  Uiso   1.00
H61    H     0.44770   0.12370   0.51620   0.01267  Uiso   1.00
H62    H     0.76690   0.52390   0.85030   0.01267  Uiso   1.00
H63    H     0.34000   0.76560   0.46300   0.01267  Uiso   1.00
H64    H     0.66000   0.23440   0.53700   0.01267  Uiso   1.00
C33    C     0.52890   0.84138   0.32230   0.01267  Uiso   1.00
C34    C     0.00410   0.33873   0.07352   0.01267  Uiso   1.00
C35    C     0.29960   0.03960   0.65047   0.01267  Uiso   1.00
C36    C     0.95720   0.29189   0.12841   0.01267  Uiso   1.00
C37    C     0.83720   0.57123   0.85562   0.01267  Uiso   1.00
C38    C     0.39260   0.75568   0.41943   0.01267  Uiso   1.00
C39    C     0.49290   0.30363   0.57024   0.01267  Uiso   1.00
C40    C     0.36990   0.09130   0.69885   0.01267  Uiso   1.00
C41    C     0.47110   0.15862   0.67770   0.01267  Uiso   1.00
C42    C     0.57230   0.88426   0.43689   0.01267  Uiso   1.00
C43    C     0.04280   0.70811   0.87159   0.01267  Uiso   1.00
C44    C     0.05190   0.43339   0.31800   0.01267  Uiso   1.00
C45    C     0.70040   0.96040   0.34953   0.01267  Uiso   1.00
C46    C     0.94810   0.56661   0.68200   0.01267  Uiso   1.00
C47    C     0.87870   0.61523   0.79797   0.01267  Uiso   1.00
C48    C     0.11550   0.45773   0.38853   0.01267  Uiso   1.00
C49    C     0.49720   0.82835   0.39189   0.01267  Uiso   1.00
C50    C     0.50710   0.69637   0.42976   0.01267  Uiso   1.00
C51    C     0.60740   0.24432   0.58057   0.01267  Uiso   1.00
C52    C     0.12130   0.38477   0.20203   0.01267  Uiso   1.00
C53    C     0.42770   0.11574   0.56311   0.01267  Uiso   1.00
C54    C     0.80810   0.58780   0.72847   0.01267  Uiso   1.00
C55    C     0.58090   0.37585   0.53784   0.01267  Uiso   1.00
C56    C     0.63010   0.90870   0.30115   0.01267  Uiso   1.00
C57    C     0.41910   0.62415   0.46216   0.01267  Uiso   1.00
C58    C     0.88450   0.54227   0.61147   0.01267  Uiso   1.00
C59    C     0.50280   0.17165   0.60811   0.01267  Uiso   1.00
C60    C     0.01520   0.31491   0.19350   0.01267  Uiso   1.00
C61    C     0.19190   0.41220   0.27153   0.01267  Uiso   1.00
C62    C     0.98480   0.68509   0.80650   0.01267  Uiso   1.00
C63    C     0.16280   0.42877   0.14438   0.01267  Uiso   1.00
C64    C     0.99590   0.66127   0.92648   0.01267  Uiso   1.00
N5     N     0.67240   0.94939   0.41711   0.01267  Uiso   1.00
N6     N     0.89310   0.59301   0.91952   0.01267  Uiso   1.00
N7     N     0.10690   0.40699   0.08048   0.01267  Uiso   1.00
N8     N     0.32760   0.05061   0.58289   0.01267  Uiso   1.00
O9     O     0.01330   0.48207   0.43057   0.01267  Uiso   1.00
O10    O     0.26420   0.61413   0.48149   0.01267  Uiso   1.00
O11    O     0.26580   0.45302   0.40786   0.01267  Uiso   1.00
O12    O     0.49280   0.42848   0.52846   0.01267  Uiso   1.00
O13    O     0.50720   0.57152   0.47154   0.01267  Uiso   1.00
O14    O     0.98670   0.51793   0.56943   0.01267  Uiso   1.00
O15    O     0.73420   0.54698   0.59214   0.01267  Uiso   1.00
O16    O     0.73580   0.38587   0.51851   0.01267  Uiso   1.00
