data_cg300256k_si_006_clean
_audit_creation_date              2015-08-19
_audit_creation_method            'Materials Studio'
_symmetry_space_group_name_H-M    'P1'
_symmetry_Int_Tables_number       1
_symmetry_cell_setting            triclinic
loop_
_symmetry_equiv_pos_as_xyz
  x,y,z
_cell_length_a                    7.8624
_cell_length_b                    17.7244
_cell_length_c                    19.4751
_cell_angle_alpha                 90.0000
_cell_angle_beta                  90.0000
_cell_angle_gamma                 100.0470
loop_
_atom_site_label
_atom_site_type_symbol
_atom_site_fract_x
_atom_site_fract_y
_atom_site_fract_z
_atom_site_U_iso_or_equiv
_atom_site_adp_type
_atom_site_occupancy
Nd1    Nd    0.24534   0.98529   0.96834   0.01267  Uiso   1.00
Nd2    Nd    0.75466   0.01471   0.03166   0.01267  Uiso   1.00
H1     H     0.60350   0.22090   0.04330   0.01267  Uiso   1.00
H2     H     0.48640   0.31000   0.21100   0.01267  Uiso   1.00
H3     H     0.71620   0.04520   0.76510   0.01267  Uiso   1.00
H4     H     0.51360   0.69000   0.78900   0.01267  Uiso   1.00
H5     H     0.65830   0.42380   0.24530   0.01267  Uiso   1.00
H6     H     0.77400   0.51130   0.16390   0.01267  Uiso   1.00
H7     H     0.76550   0.02590   0.64950   0.01267  Uiso   1.00
H8     H     0.98120   0.78250   0.26790   0.01267  Uiso   1.00
H9     H     0.95610   0.82120   0.46810   0.01267  Uiso   1.00
H10    H     0.55320   0.37960   0.01750   0.01267  Uiso   1.00
H11    H     0.04390   0.17880   0.53190   0.01267  Uiso   1.00
H12    H     0.44680   0.62040   0.98250   0.01267  Uiso   1.00
H13    H     0.22600   0.48870   0.83610   0.01267  Uiso   1.00
H14    H     0.96110   0.88870   0.17830   0.01267  Uiso   1.00
H15    H     0.87900   0.74320   0.37530   0.01267  Uiso   1.00
H16    H     0.28380   0.95480   0.23490   0.01267  Uiso   1.00
H17    H     0.23450   0.97410   0.35050   0.01267  Uiso   1.00
H18    H     0.55160   0.18670   0.11590   0.01267  Uiso   1.00
H19    H     0.65970   0.73060   0.96020   0.01267  Uiso   1.00
H20    H     0.99210   0.02610   0.79700   0.01267  Uiso   1.00
H21    H     0.03890   0.11130   0.82170   0.01267  Uiso   1.00
H22    H     0.24320   0.87030   0.20740   0.01267  Uiso   1.00
H23    H     0.39650   0.77910   0.95670   0.01267  Uiso   1.00
H24    H     0.34170   0.57620   0.75470   0.01267  Uiso   1.00
H25    H     0.30270   0.24020   0.11530   0.01267  Uiso   1.00
H26    H     0.00790   0.97390   0.20300   0.01267  Uiso   1.00
H27    H     0.01880   0.21750   0.73210   0.01267  Uiso   1.00
H28    H     0.44840   0.81330   0.88410   0.01267  Uiso   1.00
H29    H     0.69730   0.75980   0.88470   0.01267  Uiso   1.00
H30    H     0.75680   0.12970   0.79260   0.01267  Uiso   1.00
H31    H     0.12100   0.25680   0.62470   0.01267  Uiso   1.00
H32    H     0.34030   0.26940   0.03980   0.01267  Uiso   1.00
C1     C     0.36380   0.58630   0.80110   0.01267  Uiso   1.00
C2     C     0.70520   0.46570   0.15000   0.01267  Uiso   1.00
C3     C     0.29480   0.53430   0.85000   0.01267  Uiso   1.00
C4     C     0.05450   0.93210   0.18219   0.01267  Uiso   1.00
C5     C     0.50000   0.66770   0.89010   0.01267  Uiso   1.00
C6     C     0.01220   0.81370   0.30590   0.01267  Uiso   1.00
C7     C     0.94550   0.06790   0.81781   0.01267  Uiso   1.00
C8     C     0.88000   0.11630   0.70200   0.01267  Uiso   1.00
C9     C     0.99820   0.83700   0.42490   0.01267  Uiso   1.00
C10    C     0.60620   0.74080   0.91710   0.01267  Uiso   1.00
C11    C     0.58410   0.87340   0.96094   0.01267  Uiso   1.00
C12    C     0.41590   0.12660   0.03906   0.01267  Uiso   1.00
C13    C     0.95130   0.79030   0.36960   0.01267  Uiso   1.00
C14    C     0.88120   0.04420   0.88821   0.01267  Uiso   1.00
C15    C     0.63620   0.41370   0.19890   0.01267  Uiso   1.00
C16    C     0.11880   0.95580   0.11179   0.01267  Uiso   1.00
C17    C     0.39380   0.25920   0.08290   0.01267  Uiso   1.00
C18    C     0.50620   0.19920   0.07190   0.01267  Uiso   1.00
C19    C     0.57490   0.38790   0.06400   0.01267  Uiso   1.00
C20    C     0.53320   0.34610   0.17840   0.01267  Uiso   1.00
C21    C     0.80710   0.08930   0.77120   0.01267  Uiso   1.00
C22    C     0.16180   0.92700   0.35530   0.01267  Uiso   1.00
C23    C     0.42510   0.61210   0.93600   0.01267  Uiso   1.00
C24    C     0.98780   0.18630   0.69410   0.01267  Uiso   1.00
C25    C     0.46680   0.65390   0.82160   0.01267  Uiso   1.00
C26    C     0.04870   0.20970   0.63040   0.01267  Uiso   1.00
C27    C     0.12000   0.88370   0.29800   0.01267  Uiso   1.00
C28    C     0.50000   0.33230   0.10990   0.01267  Uiso   1.00
C29    C     0.00180   0.16300   0.57510   0.01267  Uiso   1.00
C30    C     0.19290   0.91070   0.22880   0.01267  Uiso   1.00
C31    C     0.49380   0.80080   0.92810   0.01267  Uiso   1.00
C32    C     0.83820   0.07300   0.64470   0.01267  Uiso   1.00
N1     N     0.67730   0.45340   0.08319   0.01267  Uiso   1.00
N2     N     0.10360   0.90540   0.41868   0.01267  Uiso   1.00
N3     N     0.89640   0.09460   0.58132   0.01267  Uiso   1.00
N4     N     0.32270   0.54660   0.91681   0.01267  Uiso   1.00
O1     O     0.98290   0.01909   0.93062   0.01267  Uiso   1.00
O2     O     0.73160   0.04918   0.90710   0.01267  Uiso   1.00
O3     O     0.73690   0.88272   0.98034   0.01267  Uiso   1.00
O4     O     0.26840   0.95082   0.09290   0.01267  Uiso   1.00
O5     O     0.01710   0.98091   0.06938   0.01267  Uiso   1.00
O6     O     0.26310   0.11728   0.01966   0.01267  Uiso   1.00
O7     O     0.49560   0.92708   0.97094   0.01267  Uiso   1.00
O8     O     0.50440   0.07292   0.02906   0.01267  Uiso   1.00
Nd3    Nd    0.24534   0.48529   0.53166   0.01267  Uiso   1.00
Nd4    Nd    0.75466   0.51471   0.46834   0.01267  Uiso   1.00
H33    H     0.22600   0.98870   0.66390   0.01267  Uiso   1.00
H34    H     0.87900   0.24320   0.12470   0.01267  Uiso   1.00
H35    H     0.99210   0.52610   0.70300   0.01267  Uiso   1.00
H36    H     0.23450   0.47410   0.14950   0.01267  Uiso   1.00
H37    H     0.04390   0.67880   0.96810   0.01267  Uiso   1.00
H38    H     0.30270   0.74020   0.38470   0.01267  Uiso   1.00
H39    H     0.69730   0.25980   0.61530   0.01267  Uiso   1.00
H40    H     0.98120   0.28250   0.23210   0.01267  Uiso   1.00
H41    H     0.55160   0.68670   0.38410   0.01267  Uiso   1.00
H42    H     0.00790   0.47390   0.29700   0.01267  Uiso   1.00
H43    H     0.44680   0.12040   0.51750   0.01267  Uiso   1.00
H44    H     0.76550   0.52590   0.85050   0.01267  Uiso   1.00
H45    H     0.39650   0.27910   0.54330   0.01267  Uiso   1.00
H46    H     0.12100   0.75680   0.87530   0.01267  Uiso   1.00
H47    H     0.65830   0.92380   0.25470   0.01267  Uiso   1.00
H48    H     0.71620   0.54520   0.73490   0.01267  Uiso   1.00
H49    H     0.77400   0.01130   0.33610   0.01267  Uiso   1.00
H50    H     0.01880   0.71750   0.76790   0.01267  Uiso   1.00
H51    H     0.24320   0.37030   0.29260   0.01267  Uiso   1.00
H52    H     0.60350   0.72090   0.45670   0.01267  Uiso   1.00
H53    H     0.51360   0.19000   0.71100   0.01267  Uiso   1.00
H54    H     0.34030   0.76940   0.46020   0.01267  Uiso   1.00
H55    H     0.55320   0.87960   0.48250   0.01267  Uiso   1.00
H56    H     0.34170   0.07620   0.74530   0.01267  Uiso   1.00
H57    H     0.75680   0.62970   0.70740   0.01267  Uiso   1.00
H58    H     0.03890   0.61130   0.67830   0.01267  Uiso   1.00
H59    H     0.48640   0.81000   0.28900   0.01267  Uiso   1.00
H60    H     0.65970   0.23060   0.53980   0.01267  Uiso   1.00
H61    H     0.44840   0.31330   0.61590   0.01267  Uiso   1.00
H62    H     0.28380   0.45480   0.26510   0.01267  Uiso   1.00
H63    H     0.96110   0.38870   0.32170   0.01267  Uiso   1.00
H64    H     0.95610   0.32120   0.03190   0.01267  Uiso   1.00
C33    C     0.57490   0.88790   0.43600   0.01267  Uiso   1.00
C34    C     0.36380   0.08630   0.69890   0.01267  Uiso   1.00
C35    C     0.41590   0.62660   0.46094   0.01267  Uiso   1.00
C36    C     0.50620   0.69920   0.42810   0.01267  Uiso   1.00
C37    C     0.11880   0.45580   0.38821   0.01267  Uiso   1.00
C38    C     0.01220   0.31370   0.19410   0.01267  Uiso   1.00
C39    C     0.63620   0.91370   0.30110   0.01267  Uiso   1.00
C40    C     0.83820   0.57300   0.85530   0.01267  Uiso   1.00
C41    C     0.19290   0.41070   0.27120   0.01267  Uiso   1.00
C42    C     0.50000   0.16770   0.60990   0.01267  Uiso   1.00
C43    C     0.50000   0.83230   0.39010   0.01267  Uiso   1.00
C44    C     0.12000   0.38370   0.20200   0.01267  Uiso   1.00
C45    C     0.49380   0.30080   0.57190   0.01267  Uiso   1.00
C46    C     0.05450   0.43210   0.31781   0.01267  Uiso   1.00
C47    C     0.60620   0.24080   0.58290   0.01267  Uiso   1.00
C48    C     0.58410   0.37340   0.53906   0.01267  Uiso   1.00
C49    C     0.04870   0.70970   0.86960   0.01267  Uiso   1.00
C50    C     0.88120   0.54420   0.61179   0.01267  Uiso   1.00
C51    C     0.80710   0.58930   0.72880   0.01267  Uiso   1.00
C52    C     0.94550   0.56790   0.68219   0.01267  Uiso   1.00
C53    C     0.70520   0.96570   0.35000   0.01267  Uiso   1.00
C54    C     0.39380   0.75920   0.41710   0.01267  Uiso   1.00
C55    C     0.95130   0.29030   0.13040   0.01267  Uiso   1.00
C56    C     0.53320   0.84610   0.32160   0.01267  Uiso   1.00
C57    C     0.42510   0.11210   0.56400   0.01267  Uiso   1.00
C58    C     0.00180   0.66300   0.92490   0.01267  Uiso   1.00
C59    C     0.98780   0.68630   0.80590   0.01267  Uiso   1.00
C60    C     0.99820   0.33700   0.07510   0.01267  Uiso   1.00
C61    C     0.46680   0.15390   0.67840   0.01267  Uiso   1.00
C62    C     0.88000   0.61630   0.79800   0.01267  Uiso   1.00
C63    C     0.29480   0.03430   0.65000   0.01267  Uiso   1.00
C64    C     0.16180   0.42700   0.14470   0.01267  Uiso   1.00
N5     N     0.89640   0.59460   0.91868   0.01267  Uiso   1.00
N6     N     0.32270   0.04660   0.58319   0.01267  Uiso   1.00
N7     N     0.67730   0.95340   0.41681   0.01267  Uiso   1.00
N8     N     0.10360   0.40540   0.08132   0.01267  Uiso   1.00
O9     O     0.26310   0.61728   0.48034   0.01267  Uiso   1.00
O10    O     0.73690   0.38272   0.51966   0.01267  Uiso   1.00
O11    O     0.01710   0.48091   0.43062   0.01267  Uiso   1.00
O12    O     0.98290   0.51909   0.56938   0.01267  Uiso   1.00
O13    O     0.73160   0.54918   0.59290   0.01267  Uiso   1.00
O14    O     0.50440   0.57292   0.47094   0.01267  Uiso   1.00
O15    O     0.26840   0.45082   0.40710   0.01267  Uiso   1.00
O16    O     0.49560   0.42708   0.52906   0.01267  Uiso   1.00
