data_image0
_cell_length_a       16.038
_cell_length_b       14.499
_cell_length_c       29.508
_cell_angle_alpha    90
_cell_angle_beta     90
_cell_angle_gamma    90

_symmetry_space_group_name_H-M    "P 1"
_symmetry_int_tables_number       1

loop_
  _symmetry_equiv_pos_as_xyz
  'x, y, z'

loop_
  _atom_site_label
  _atom_site_occupancy
  _atom_site_fract_x
  _atom_site_fract_y
  _atom_site_fract_z
  _atom_site_thermal_displace_type
  _atom_site_B_iso_or_equiv
  _atom_site_type_symbol
  O1       1.0000 0.07875  0.40020  0.10576  Biso   1.000  O
  O2       1.0000 0.01092  0.53420  0.10053  Biso   1.000  O
  O3       1.0000 0.49870  0.27420  0.10043  Biso   1.000  O
  O4       1.0000 0.55546  0.23130  0.16524  Biso   1.000  O
  O5       1.0000 0.43938  0.68700  0.11364  Biso   1.000  O
  O6       1.0000 0.38461  0.74050  0.17613  Biso   1.000  O
  O7       1.0000 0.51890  0.42340  0.30179  Biso   1.000  O
  O8       1.0000 0.43400  0.54440  0.30032  Biso   1.000  O
  C1       1.0000 0.29840  0.53910  0.14339  Biso   1.000  C
  C2       1.0000 0.22460  0.49270  0.13278  Biso   1.000  C
  H1       1.0000 0.22070  0.42970  0.13840  Biso   1.000  H
  C3       1.0000 0.15700  0.53890  0.11403  Biso   1.000  C
  C4       1.0000 0.16250  0.63180  0.10511  Biso   1.000  C
  H2       1.0000 0.11730  0.66270  0.09250  Biso   1.000  H
  C5       1.0000 0.23560  0.67960  0.11490  Biso   1.000  C
  H3       1.0000 0.23910  0.74240  0.10880  Biso   1.000  H
  C6       1.0000 0.30370  0.63370  0.13380  Biso   1.000  C
  C7       1.0000 0.07620  0.48580  0.10641  Biso   1.000  C
  C8       1.0000 0.38180  0.68950  0.14245  Biso   1.000  C
  C9       1.0000 0.36810  0.48780  0.16573  Biso   1.000  C
  C10      1.0000 0.39230  0.51100  0.20964  Biso   1.000  C
  H4       1.0000 0.36820  0.56180  0.22380  Biso   1.000  H
  C11      1.0000 0.45200  0.45920  0.23267  Biso   1.000  C
  C12      1.0000 0.49000  0.38640  0.20983  Biso   1.000  C
  H5       1.0000 0.53080  0.35210  0.22460  Biso   1.000  H
  C13      1.0000 0.46880  0.36380  0.16581  Biso   1.000  C
  C14      1.0000 0.40710  0.41430  0.14424  Biso   1.000  C
  H6       1.0000 0.39140  0.39860  0.11490  Biso   1.000  H
  C15      1.0000 0.51080  0.28610  0.14121  Biso   1.000  C
  C16      1.0000 0.46990  0.47720  0.28135  Biso   1.000  C
  Mn1      1.0000 0.50729  0.31778  0.35030  Biso   1.000  Mn
  N1       1.0000 0.40480  0.25560  0.30749  Biso   1.000  N
  N2       1.0000 0.38730  0.33670  0.38816  Biso   1.000  N
  C17      1.0000 0.38200  0.36820  0.43056  Biso   1.000  C
  H7       1.0000 0.43110  0.38420  0.44530  Biso   1.000  H
  C18      1.0000 0.30680  0.37840  0.45407  Biso   1.000  C
  H8       1.0000 0.30510  0.39900  0.48390  Biso   1.000  H
  C19      1.0000 0.23550  0.35610  0.43060  Biso   1.000  C
  H9       1.0000 0.18410  0.36230  0.44480  Biso   1.000  H
  C20      1.0000 0.23860  0.32520  0.38720  Biso   1.000  C
  H10      1.0000 0.18980  0.31070  0.37170  Biso   1.000  H
  C21      1.0000 0.31560  0.31560  0.36624  Biso   1.000  C
  C22      1.0000 0.32620  0.27890  0.32019  Biso   1.000  C
  C23      1.0000 0.26110  0.26680  0.28970  Biso   1.000  C
  H11      1.0000 0.20720  0.28360  0.29780  Biso   1.000  H
  C24      1.0000 0.27580  0.23020  0.24760  Biso   1.000  C
  H12      1.0000 0.23210  0.22350  0.22720  Biso   1.000  H
  C25      1.0000 0.35480  0.20350  0.23548  Biso   1.000  C
  H13      1.0000 0.36560  0.17660  0.20750  Biso   1.000  H
  C26      1.0000 0.41800  0.21850  0.26693  Biso   1.000  C
  H14      1.0000 0.47210  0.20160  0.25920  Biso   1.000  H
  Mn2      1.0000 0.41840  0.60430  0.36495  Biso   1.000  Mn
  N3       1.0000 0.35820  0.63170  0.43236  Biso   1.000  N
  N4       1.0000 0.28170  0.56390  0.35942  Biso   1.000  N
  C27      1.0000 0.24640  0.53330  0.32139  Biso   1.000  C
  H15      1.0000 0.28050  0.51970  0.29680  Biso   1.000  H
  C28      1.0000 0.16130  0.52110  0.31700  Biso   1.000  C
  H16      1.0000 0.13880  0.49810  0.29020  Biso   1.000  H
  C29      1.0000 0.11100  0.54310  0.35260  Biso   1.000  C
  H17      1.0000 0.05350  0.53730  0.35000  Biso   1.000  H
  C30      1.0000 0.14580  0.57400  0.39200  Biso   1.000  C
  H18      1.0000 0.11200  0.58930  0.41650  Biso   1.000  H
  C31      1.0000 0.23360  0.58250  0.39551  Biso   1.000  C
  C32      1.0000 0.27630  0.61280  0.43702  Biso   1.000  C
  C33      1.0000 0.23620  0.62090  0.47810  Biso   1.000  C
  H19      1.0000 0.17980  0.60720  0.48080  Biso   1.000  H
  C34      1.0000 0.28180  0.64980  0.51530  Biso   1.000  C
  H20      1.0000 0.25610  0.65460  0.54340  Biso   1.000  H
  C35      1.0000 0.36480  0.67160  0.51088  Biso   1.000  C
  H21      1.0000 0.39590  0.69310  0.53530  Biso   1.000  H
  C36      1.0000 0.39930  0.65990  0.46875  Biso   1.000  C
  H22      1.0000 0.45580  0.67280  0.46550  Biso   1.000  H
