data_image0
_cell_length_a       12.411
_cell_length_b       19.5709
_cell_length_c       15.6611
_cell_angle_alpha    90
_cell_angle_beta     90
_cell_angle_gamma    90

_symmetry_space_group_name_H-M    "P 1"
_symmetry_int_tables_number       1

loop_
  _symmetry_equiv_pos_as_xyz
  'x, y, z'

loop_
  _atom_site_label
  _atom_site_occupancy
  _atom_site_fract_x
  _atom_site_fract_y
  _atom_site_fract_z
  _atom_site_thermal_displace_type
  _atom_site_B_iso_or_equiv
  _atom_site_type_symbol
  N1       1.0000 0.20970  0.13440  0.07120  Biso   1.000  N
  N2       1.0000 0.29430  0.18070  0.83500  Biso   1.000  N
  H1       1.0000 0.35440  0.15990  0.82660  Biso   1.000  H
  N3       1.0000 0.13580  0.22580  0.80970  Biso   1.000  N
  O1       1.0000 0.42940  0.23670  0.14120  Biso   1.000  O
  O2       1.0000 0.36080  0.14210  0.19630  Biso   1.000  O
  O3       1.0000 0.11190  0.22360  0.12100  Biso   1.000  O
  O4       1.0000 0.30410  0.04330  0.03140  Biso   1.000  O
  C1       1.0000 0.36870  0.18480  0.14040  Biso   1.000  C
  C2       1.0000 0.30030  0.17940  0.05970  Biso   1.000  C
  C3       1.0000 0.11750  0.16340  0.10540  Biso   1.000  C
  C4       1.0000 0.22190  0.06520  0.06020  Biso   1.000  C
  C5       1.0000 0.13180  0.02040  0.08350  Biso   1.000  C
  C6       1.0000 0.03570  0.04950  0.11310  Biso   1.000  C
  C7       1.0000 0.02510  0.11840  0.12420  Biso   1.000  C
  C8       1.0000 0.93090  0.14670  0.15380  Biso   1.000  C
  H2       1.0000 0.92510  0.19380  0.16080  Biso   1.000  H
  C9       1.0000 0.84690  0.10570  0.17260  Biso   1.000  C
  H3       1.0000 0.78380  0.12540  0.19310  Biso   1.000  H
  C10      1.0000 0.85080  0.03720  0.16290  Biso   1.000  C
  H4       1.0000 0.79020  0.01110  0.17560  Biso   1.000  H
  C11      1.0000 0.94720  0.00380  0.13320  Biso   1.000  C
  C12      1.0000 0.96070  0.93460  0.12340  Biso   1.000  C
  H5       1.0000 0.90300  0.90580  0.13530  Biso   1.000  H
  C13      1.0000 0.05340  0.90730  0.09750  Biso   1.000  C
  H6       1.0000 0.06080  0.86010  0.09530  Biso   1.000  H
  C14      1.0000 0.13980  0.94910  0.07340  Biso   1.000  C
  H7       1.0000 0.20210  0.92980  0.05090  Biso   1.000  H
  C15      1.0000 0.32700  0.21350  0.98870  Biso   1.000  C
  H8       1.0000 0.38850  0.24070  0.98830  Biso   1.000  H
  C16      1.0000 0.25960  0.20860  0.91030  Biso   1.000  C
  C17      1.0000 0.16100  0.23590  0.89310  Biso   1.000  C
  H9       1.0000 0.11740  0.25810  0.93260  Biso   1.000  H
  C18      1.0000 0.21630  0.19220  0.77620  Biso   1.000  C
  H10      1.0000 0.21970  0.17800  0.71960  Biso   1.000  H
  N4       1.0000 0.29030  0.36560  0.57120  Biso   1.000  N
  N5       1.0000 0.20570  0.31930  0.33500  Biso   1.000  N
  H11      1.0000 0.14560  0.34010  0.32660  Biso   1.000  H
  N6       1.0000 0.36420  0.27420  0.30970  Biso   1.000  N
  O5       1.0000 0.07060  0.26330  0.64120  Biso   1.000  O
  O6       1.0000 0.13920  0.35790  0.69630  Biso   1.000  O
  O7       1.0000 0.38810  0.27640  0.62100  Biso   1.000  O
  O8       1.0000 0.19590  0.45670  0.53140  Biso   1.000  O
  C19      1.0000 0.13130  0.31520  0.64040  Biso   1.000  C
  C20      1.0000 0.19970  0.32060  0.55970  Biso   1.000  C
  C21      1.0000 0.38250  0.33660  0.60540  Biso   1.000  C
  C22      1.0000 0.27810  0.43480  0.56020  Biso   1.000  C
  C23      1.0000 0.36820  0.47960  0.58350  Biso   1.000  C
  C24      1.0000 0.46430  0.45050  0.61310  Biso   1.000  C
  C25      1.0000 0.47490  0.38160  0.62420  Biso   1.000  C
  C26      1.0000 0.56910  0.35330  0.65380  Biso   1.000  C
  H12      1.0000 0.57490  0.30620  0.66080  Biso   1.000  H
  C27      1.0000 0.65310  0.39430  0.67260  Biso   1.000  C
  H13      1.0000 0.71620  0.37460  0.69310  Biso   1.000  H
  C28      1.0000 0.64920  0.46280  0.66290  Biso   1.000  C
  H14      1.0000 0.70980  0.48890  0.67560  Biso   1.000  H
  C29      1.0000 0.55280  0.49620  0.63320  Biso   1.000  C
  C30      1.0000 0.53930  0.56540  0.62340  Biso   1.000  C
  H15      1.0000 0.59700  0.59420  0.63530  Biso   1.000  H
  C31      1.0000 0.44660  0.59270  0.59750  Biso   1.000  C
  H16      1.0000 0.43920  0.63990  0.59530  Biso   1.000  H
  C32      1.0000 0.36020  0.55090  0.57340  Biso   1.000  C
  H17      1.0000 0.29790  0.57020  0.55090  Biso   1.000  H
  C33      1.0000 0.17300  0.28650  0.48870  Biso   1.000  C
  H18      1.0000 0.11150  0.25930  0.48830  Biso   1.000  H
  C34      1.0000 0.24040  0.29140  0.41030  Biso   1.000  C
  C35      1.0000 0.33900  0.26410  0.39310  Biso   1.000  C
  H19      1.0000 0.38260  0.24190  0.43260  Biso   1.000  H
  C36      1.0000 0.28370  0.30780  0.27620  Biso   1.000  C
  H20      1.0000 0.28030  0.32200  0.21960  Biso   1.000  H
  N7       1.0000 0.79030  0.13440  0.42880  Biso   1.000  N
  N8       1.0000 0.70570  0.18070  0.66500  Biso   1.000  N
  H21      1.0000 0.64560  0.15990  0.67340  Biso   1.000  H
  N9       1.0000 0.86420  0.22580  0.69030  Biso   1.000  N
  O9       1.0000 0.57060  0.23670  0.35880  Biso   1.000  O
  O10      1.0000 0.63920  0.14210  0.30370  Biso   1.000  O
  O11      1.0000 0.88810  0.22360  0.37900  Biso   1.000  O
  O12      1.0000 0.69590  0.04330  0.46860  Biso   1.000  O
  C37      1.0000 0.63130  0.18480  0.35960  Biso   1.000  C
  C38      1.0000 0.69970  0.17940  0.44030  Biso   1.000  C
  C39      1.0000 0.88250  0.16340  0.39460  Biso   1.000  C
  C40      1.0000 0.77810  0.06520  0.43980  Biso   1.000  C
  C41      1.0000 0.86820  0.02040  0.41650  Biso   1.000  C
  C42      1.0000 0.96430  0.04950  0.38690  Biso   1.000  C
  C43      1.0000 0.97490  0.11840  0.37580  Biso   1.000  C
  C44      1.0000 0.06910  0.14670  0.34620  Biso   1.000  C
  H22      1.0000 0.07490  0.19380  0.33920  Biso   1.000  H
  C45      1.0000 0.15310  0.10570  0.32740  Biso   1.000  C
  H23      1.0000 0.21620  0.12540  0.30690  Biso   1.000  H
  C46      1.0000 0.14920  0.03720  0.33710  Biso   1.000  C
  H24      1.0000 0.20980  0.01110  0.32440  Biso   1.000  H
  C47      1.0000 0.05280  0.00380  0.36680  Biso   1.000  C
  C48      1.0000 0.03930  0.93460  0.37660  Biso   1.000  C
  H25      1.0000 0.09700  0.90580  0.36470  Biso   1.000  H
  C49      1.0000 0.94660  0.90730  0.40250  Biso   1.000  C
  H26      1.0000 0.93920  0.86010  0.40470  Biso   1.000  H
  C50      1.0000 0.86020  0.94910  0.42660  Biso   1.000  C
  H27      1.0000 0.79790  0.92980  0.44910  Biso   1.000  H
  C51      1.0000 0.67300  0.21350  0.51130  Biso   1.000  C
  H28      1.0000 0.61150  0.24070  0.51170  Biso   1.000  H
  C52      1.0000 0.74040  0.20860  0.58970  Biso   1.000  C
  C53      1.0000 0.83900  0.23590  0.60690  Biso   1.000  C
  H29      1.0000 0.88260  0.25810  0.56740  Biso   1.000  H
  C54      1.0000 0.78370  0.19220  0.72380  Biso   1.000  C
  H30      1.0000 0.78030  0.17800  0.78040  Biso   1.000  H
  N10      1.0000 0.70970  0.36560  0.92880  Biso   1.000  N
  N11      1.0000 0.79430  0.31930  0.16500  Biso   1.000  N
  H31      1.0000 0.85440  0.34010  0.17340  Biso   1.000  H
  N12      1.0000 0.63580  0.27420  0.19030  Biso   1.000  N
  O13      1.0000 0.92940  0.26330  0.85880  Biso   1.000  O
  O14      1.0000 0.86080  0.35790  0.80370  Biso   1.000  O
  O15      1.0000 0.61190  0.27640  0.87900  Biso   1.000  O
  O16      1.0000 0.80410  0.45670  0.96860  Biso   1.000  O
  C55      1.0000 0.86870  0.31520  0.85960  Biso   1.000  C
  C56      1.0000 0.80030  0.32060  0.94030  Biso   1.000  C
  C57      1.0000 0.61750  0.33660  0.89460  Biso   1.000  C
  C58      1.0000 0.72190  0.43480  0.93980  Biso   1.000  C
  C59      1.0000 0.63180  0.47960  0.91650  Biso   1.000  C
  C60      1.0000 0.53570  0.45050  0.88690  Biso   1.000  C
  C61      1.0000 0.52510  0.38160  0.87580  Biso   1.000  C
  C62      1.0000 0.43090  0.35330  0.84620  Biso   1.000  C
  H32      1.0000 0.42510  0.30620  0.83920  Biso   1.000  H
  C63      1.0000 0.34690  0.39430  0.82740  Biso   1.000  C
  H33      1.0000 0.28380  0.37460  0.80690  Biso   1.000  H
  C64      1.0000 0.35080  0.46280  0.83710  Biso   1.000  C
  H34      1.0000 0.29020  0.48890  0.82440  Biso   1.000  H
  C65      1.0000 0.44720  0.49620  0.86680  Biso   1.000  C
  C66      1.0000 0.46070  0.56540  0.87660  Biso   1.000  C
  H35      1.0000 0.40300  0.59420  0.86470  Biso   1.000  H
  C67      1.0000 0.55340  0.59270  0.90250  Biso   1.000  C
  H36      1.0000 0.56080  0.63990  0.90470  Biso   1.000  H
  C68      1.0000 0.63980  0.55090  0.92660  Biso   1.000  C
  H37      1.0000 0.70210  0.57020  0.94910  Biso   1.000  H
  C69      1.0000 0.82700  0.28650  0.01130  Biso   1.000  C
  H38      1.0000 0.88850  0.25930  0.01170  Biso   1.000  H
  C70      1.0000 0.75960  0.29140  0.08970  Biso   1.000  C
  C71      1.0000 0.66100  0.26410  0.10690  Biso   1.000  C
  H39      1.0000 0.61740  0.24190  0.06740  Biso   1.000  H
  C72      1.0000 0.71630  0.30780  0.22380  Biso   1.000  C
  H40      1.0000 0.71970  0.32200  0.28040  Biso   1.000  H
  Cu1      1.0000 0.50000  0.24927  0.25000  Biso   1.000  Cu
  Cu2      1.0000 0.00000  0.25073  0.75000  Biso   1.000  Cu
  N13      1.0000 0.79030  0.86560  0.92880  Biso   1.000  N
  N14      1.0000 0.70570  0.81930  0.16500  Biso   1.000  N
  H41      1.0000 0.64560  0.84010  0.17340  Biso   1.000  H
  N15      1.0000 0.86420  0.77420  0.19030  Biso   1.000  N
  O17      1.0000 0.57060  0.76330  0.85880  Biso   1.000  O
  O18      1.0000 0.63920  0.85790  0.80370  Biso   1.000  O
  O19      1.0000 0.88810  0.77640  0.87900  Biso   1.000  O
  O20      1.0000 0.69590  0.95670  0.96860  Biso   1.000  O
  C73      1.0000 0.63130  0.81520  0.85960  Biso   1.000  C
  C74      1.0000 0.69970  0.82060  0.94030  Biso   1.000  C
  C75      1.0000 0.88250  0.83660  0.89460  Biso   1.000  C
  C76      1.0000 0.77810  0.93480  0.93980  Biso   1.000  C
  C77      1.0000 0.86820  0.97960  0.91650  Biso   1.000  C
  C78      1.0000 0.96430  0.95050  0.88690  Biso   1.000  C
  C79      1.0000 0.97490  0.88160  0.87580  Biso   1.000  C
  C80      1.0000 0.06910  0.85330  0.84620  Biso   1.000  C
  H42      1.0000 0.07490  0.80620  0.83920  Biso   1.000  H
  C81      1.0000 0.15310  0.89430  0.82740  Biso   1.000  C
  H43      1.0000 0.21620  0.87460  0.80690  Biso   1.000  H
  C82      1.0000 0.14920  0.96280  0.83710  Biso   1.000  C
  H44      1.0000 0.20980  0.98890  0.82440  Biso   1.000  H
  C83      1.0000 0.05280  0.99620  0.86680  Biso   1.000  C
  C84      1.0000 0.03930  0.06540  0.87660  Biso   1.000  C
  H45      1.0000 0.09700  0.09420  0.86470  Biso   1.000  H
  C85      1.0000 0.94660  0.09270  0.90250  Biso   1.000  C
  H46      1.0000 0.93920  0.13990  0.90470  Biso   1.000  H
  C86      1.0000 0.86020  0.05090  0.92660  Biso   1.000  C
  H47      1.0000 0.79790  0.07020  0.94910  Biso   1.000  H
  C87      1.0000 0.67300  0.78650  0.01130  Biso   1.000  C
  H48      1.0000 0.61150  0.75930  0.01170  Biso   1.000  H
  C88      1.0000 0.74040  0.79140  0.08970  Biso   1.000  C
  C89      1.0000 0.83900  0.76410  0.10690  Biso   1.000  C
  H49      1.0000 0.88260  0.74190  0.06740  Biso   1.000  H
  C90      1.0000 0.78370  0.80780  0.22380  Biso   1.000  C
  H50      1.0000 0.78030  0.82200  0.28040  Biso   1.000  H
  N16      1.0000 0.70970  0.63440  0.42880  Biso   1.000  N
  N17      1.0000 0.79430  0.68070  0.66500  Biso   1.000  N
  H51      1.0000 0.85440  0.65990  0.67340  Biso   1.000  H
  N18      1.0000 0.63580  0.72580  0.69030  Biso   1.000  N
  O21      1.0000 0.92940  0.73670  0.35880  Biso   1.000  O
  O22      1.0000 0.86080  0.64210  0.30370  Biso   1.000  O
  O23      1.0000 0.61190  0.72360  0.37900  Biso   1.000  O
  O24      1.0000 0.80410  0.54330  0.46860  Biso   1.000  O
  C91      1.0000 0.86870  0.68480  0.35960  Biso   1.000  C
  C92      1.0000 0.80030  0.67940  0.44030  Biso   1.000  C
  C93      1.0000 0.61750  0.66340  0.39460  Biso   1.000  C
  C94      1.0000 0.72190  0.56520  0.43980  Biso   1.000  C
  C95      1.0000 0.63180  0.52040  0.41650  Biso   1.000  C
  C96      1.0000 0.53570  0.54950  0.38690  Biso   1.000  C
  C97      1.0000 0.52510  0.61840  0.37580  Biso   1.000  C
  C98      1.0000 0.43090  0.64670  0.34620  Biso   1.000  C
  H52      1.0000 0.42510  0.69380  0.33920  Biso   1.000  H
  C99      1.0000 0.34690  0.60570  0.32740  Biso   1.000  C
  H53      1.0000 0.28380  0.62540  0.30690  Biso   1.000  H
  C100     1.0000 0.35080  0.53720  0.33710  Biso   1.000  C
  H54      1.0000 0.29020  0.51110  0.32440  Biso   1.000  H
  C101     1.0000 0.44720  0.50380  0.36680  Biso   1.000  C
  C102     1.0000 0.46070  0.43460  0.37660  Biso   1.000  C
  H55      1.0000 0.40300  0.40580  0.36470  Biso   1.000  H
  C103     1.0000 0.55340  0.40730  0.40250  Biso   1.000  C
  H56      1.0000 0.56080  0.36010  0.40470  Biso   1.000  H
  C104     1.0000 0.63980  0.44910  0.42660  Biso   1.000  C
  H57      1.0000 0.70210  0.42980  0.44910  Biso   1.000  H
  C105     1.0000 0.82700  0.71350  0.51130  Biso   1.000  C
  H58      1.0000 0.88850  0.74070  0.51170  Biso   1.000  H
  C106     1.0000 0.75960  0.70860  0.58970  Biso   1.000  C
  C107     1.0000 0.66100  0.73590  0.60690  Biso   1.000  C
  H59      1.0000 0.61740  0.75810  0.56740  Biso   1.000  H
  C108     1.0000 0.71630  0.69220  0.72380  Biso   1.000  C
  H60      1.0000 0.71970  0.67800  0.78040  Biso   1.000  H
  N19      1.0000 0.20970  0.86560  0.57120  Biso   1.000  N
  N20      1.0000 0.29430  0.81930  0.33500  Biso   1.000  N
  H61      1.0000 0.35440  0.84010  0.32660  Biso   1.000  H
  N21      1.0000 0.13580  0.77420  0.30970  Biso   1.000  N
  O25      1.0000 0.42940  0.76330  0.64120  Biso   1.000  O
  O26      1.0000 0.36080  0.85790  0.69630  Biso   1.000  O
  O27      1.0000 0.11190  0.77640  0.62100  Biso   1.000  O
  O28      1.0000 0.30410  0.95670  0.53140  Biso   1.000  O
  C109     1.0000 0.36870  0.81520  0.64040  Biso   1.000  C
  C110     1.0000 0.30030  0.82060  0.55970  Biso   1.000  C
  C111     1.0000 0.11750  0.83660  0.60540  Biso   1.000  C
  C112     1.0000 0.22190  0.93480  0.56020  Biso   1.000  C
  C113     1.0000 0.13180  0.97960  0.58350  Biso   1.000  C
  C114     1.0000 0.03570  0.95050  0.61310  Biso   1.000  C
  C115     1.0000 0.02510  0.88160  0.62420  Biso   1.000  C
  C116     1.0000 0.93090  0.85330  0.65380  Biso   1.000  C
  H62      1.0000 0.92510  0.80620  0.66080  Biso   1.000  H
  C117     1.0000 0.84690  0.89430  0.67260  Biso   1.000  C
  H63      1.0000 0.78380  0.87460  0.69310  Biso   1.000  H
  C118     1.0000 0.85080  0.96280  0.66290  Biso   1.000  C
  H64      1.0000 0.79020  0.98890  0.67560  Biso   1.000  H
  C119     1.0000 0.94720  0.99620  0.63320  Biso   1.000  C
  C120     1.0000 0.96070  0.06540  0.62340  Biso   1.000  C
  H65      1.0000 0.90300  0.09420  0.63530  Biso   1.000  H
  C121     1.0000 0.05340  0.09270  0.59750  Biso   1.000  C
  H66      1.0000 0.06080  0.13990  0.59530  Biso   1.000  H
  C122     1.0000 0.13980  0.05090  0.57340  Biso   1.000  C
  H67      1.0000 0.20210  0.07020  0.55090  Biso   1.000  H
  C123     1.0000 0.32700  0.78650  0.48870  Biso   1.000  C
  H68      1.0000 0.38850  0.75930  0.48830  Biso   1.000  H
  C124     1.0000 0.25960  0.79140  0.41030  Biso   1.000  C
  C125     1.0000 0.16100  0.76410  0.39310  Biso   1.000  C
  H69      1.0000 0.11740  0.74190  0.43260  Biso   1.000  H
  C126     1.0000 0.21630  0.80780  0.27620  Biso   1.000  C
  H70      1.0000 0.21970  0.82200  0.21960  Biso   1.000  H
  N22      1.0000 0.29030  0.63440  0.07120  Biso   1.000  N
  N23      1.0000 0.20570  0.68070  0.83500  Biso   1.000  N
  H71      1.0000 0.14560  0.65990  0.82660  Biso   1.000  H
  N24      1.0000 0.36420  0.72580  0.80970  Biso   1.000  N
  O29      1.0000 0.07060  0.73670  0.14120  Biso   1.000  O
  O30      1.0000 0.13920  0.64210  0.19630  Biso   1.000  O
  O31      1.0000 0.38810  0.72360  0.12100  Biso   1.000  O
  O32      1.0000 0.19590  0.54330  0.03140  Biso   1.000  O
  C127     1.0000 0.13130  0.68480  0.14040  Biso   1.000  C
  C128     1.0000 0.19970  0.67940  0.05970  Biso   1.000  C
  C129     1.0000 0.38250  0.66340  0.10540  Biso   1.000  C
  C130     1.0000 0.27810  0.56520  0.06020  Biso   1.000  C
  C131     1.0000 0.36820  0.52040  0.08350  Biso   1.000  C
  C132     1.0000 0.46430  0.54950  0.11310  Biso   1.000  C
  C133     1.0000 0.47490  0.61840  0.12420  Biso   1.000  C
  C134     1.0000 0.56910  0.64670  0.15380  Biso   1.000  C
  H72      1.0000 0.57490  0.69380  0.16080  Biso   1.000  H
  C135     1.0000 0.65310  0.60570  0.17260  Biso   1.000  C
  H73      1.0000 0.71620  0.62540  0.19310  Biso   1.000  H
  C136     1.0000 0.64920  0.53720  0.16290  Biso   1.000  C
  H74      1.0000 0.70980  0.51110  0.17560  Biso   1.000  H
  C137     1.0000 0.55280  0.50380  0.13320  Biso   1.000  C
  C138     1.0000 0.53930  0.43460  0.12340  Biso   1.000  C
  H75      1.0000 0.59700  0.40580  0.13530  Biso   1.000  H
  C139     1.0000 0.44660  0.40730  0.09750  Biso   1.000  C
  H76      1.0000 0.43920  0.36010  0.09530  Biso   1.000  H
  C140     1.0000 0.36020  0.44910  0.07340  Biso   1.000  C
  H77      1.0000 0.29790  0.42980  0.05090  Biso   1.000  H
  C141     1.0000 0.17300  0.71350  0.98870  Biso   1.000  C
  H78      1.0000 0.11150  0.74070  0.98830  Biso   1.000  H
  C142     1.0000 0.24040  0.70860  0.91030  Biso   1.000  C
  C143     1.0000 0.33900  0.73590  0.89310  Biso   1.000  C
  H79      1.0000 0.38260  0.75810  0.93260  Biso   1.000  H
  C144     1.0000 0.28370  0.69220  0.77620  Biso   1.000  C
  H80      1.0000 0.28030  0.67800  0.71960  Biso   1.000  H
  Cu3      1.0000 0.50000  0.75073  0.75000  Biso   1.000  Cu
  Cu4      1.0000 0.00000  0.74927  0.25000  Biso   1.000  Cu
