data_image0
_cell_length_a       18.0712
_cell_length_b       20.2891
_cell_length_c       21.3259
_cell_angle_alpha    90
_cell_angle_beta     105.165
_cell_angle_gamma    90

_symmetry_space_group_name_H-M    "P 1"
_symmetry_int_tables_number       1

loop_
  _symmetry_equiv_pos_as_xyz
  'x, y, z'

loop_
  _atom_site_label
  _atom_site_occupancy
  _atom_site_fract_x
  _atom_site_fract_y
  _atom_site_fract_z
  _atom_site_thermal_displace_type
  _atom_site_B_iso_or_equiv
  _atom_site_type_symbol
  Ag1      1.0000 0.84933  0.55967  0.18279  Biso   1.000  Ag
  Ag2      1.0000 0.76571  0.67340  0.20705  Biso   1.000  Ag
  Ag3      1.0000 0.70887  0.54082  0.21017  Biso   1.000  Ag
  Ag4      1.0000 0.78948  0.43334  0.29694  Biso   1.000  Ag
  Ag5      1.0000 0.63000  0.40986  0.29851  Biso   1.000  Ag
  Ag6      1.0000 0.72273  0.30681  0.22917  Biso   1.000  Ag
  Ag7      1.0000 0.88539  0.33505  0.24412  Biso   1.000  Ag
  Ag8      1.0000 0.82404  0.20280  0.20004  Biso   1.000  Ag
  C1       1.0000 0.81387  0.58897  0.27102  Biso   1.000  C
  C2       1.0000 0.85576  0.59000  0.32589  Biso   1.000  C
  C3       1.0000 0.91043  0.58886  0.38866  Biso   1.000  C
  C4       1.0000 0.98883  0.58480  0.39130  Biso   1.000  C
  H1       1.0000 0.00450  0.58450  0.35310  Biso   1.000  H
  C5       1.0000 0.04269  0.58119  0.45062  Biso   1.000  C
  H2       1.0000 0.09460  0.57840  0.45250  Biso   1.000  H
  C6       1.0000 0.01843  0.58174  0.50792  Biso   1.000  C
  C7       1.0000 0.94072  0.58625  0.50587  Biso   1.000  C
  H3       1.0000 0.92530  0.58680  0.54420  Biso   1.000  H
  C8       1.0000 0.88677  0.58987  0.44628  Biso   1.000  C
  H4       1.0000 0.83490  0.59300  0.44450  Biso   1.000  H
  C9       1.0000 0.07488  0.57698  0.56914  Biso   1.000  C
  N1       1.0000 0.12002  0.57243  0.61781  Biso   1.000  N
  C10      1.0000 0.69430  0.42269  0.21712  Biso   1.000  C
  C11      1.0000 0.64707  0.42207  0.16438  Biso   1.000  C
  C12      1.0000 0.59178  0.41951  0.10215  Biso   1.000  C
  C13      1.0000 0.61665  0.41680  0.04511  Biso   1.000  C
  H5       1.0000 0.66880  0.41620  0.04760  Biso   1.000  H
  C14      1.0000 0.56365  0.41498  0.98515  Biso   1.000  C
  H6       1.0000 0.57970  0.41310  0.94710  Biso   1.000  H
  C15      1.0000 0.48580  0.41593  0.98269  Biso   1.000  C
  C16      1.0000 0.46015  0.41794  0.03898  Biso   1.000  C
  H7       1.0000 0.40790  0.41790  0.03630  Biso   1.000  H
  C17      1.0000 0.51328  0.42002  0.09883  Biso   1.000  C
  H8       1.0000 0.49700  0.42170  0.13670  Biso   1.000  H
  C18      1.0000 0.42909  0.41640  0.92106  Biso   1.000  C
  N2       1.0000 0.38286  0.41815  0.87285  Biso   1.000  N
  C19      1.0000 0.82824  0.25499  0.29167  Biso   1.000  C
  C20      1.0000 0.87790  0.25810  0.34309  Biso   1.000  C
  C21      1.0000 0.93432  0.25671  0.40541  Biso   1.000  C
  C22      1.0000 0.01258  0.25470  0.40796  Biso   1.000  C
  H9       1.0000 0.02820  0.25550  0.36980  Biso   1.000  H
  C23      1.0000 0.06665  0.25155  0.46755  Biso   1.000  C
  H10      1.0000 0.11860  0.25070  0.46940  Biso   1.000  H
  C24      1.0000 0.04276  0.24973  0.52457  Biso   1.000  C
  C25      1.0000 0.96459  0.25210  0.52265  Biso   1.000  C
  H11      1.0000 0.94910  0.25090  0.56090  Biso   1.000  H
  C26      1.0000 0.91088  0.25633  0.46311  Biso   1.000  C
  H12      1.0000 0.85900  0.25890  0.46140  Biso   1.000  H
  C27      1.0000 0.10043  0.24469  0.58531  Biso   1.000  C
  N3       1.0000 0.14818  0.23961  0.63251  Biso   1.000  N
  Ag9      1.0000 0.65067  0.05967  0.31721  Biso   1.000  Ag
  Ag10     1.0000 0.73429  0.17340  0.29295  Biso   1.000  Ag
  Ag11     1.0000 0.79113  0.04082  0.28983  Biso   1.000  Ag
  Ag12     1.0000 0.71052  0.93334  0.20306  Biso   1.000  Ag
  Ag13     1.0000 0.87000  0.90986  0.20149  Biso   1.000  Ag
  Ag14     1.0000 0.77727  0.80681  0.27083  Biso   1.000  Ag
  Ag15     1.0000 0.61461  0.83505  0.25588  Biso   1.000  Ag
  Ag16     1.0000 0.67596  0.70280  0.29996  Biso   1.000  Ag
  C28      1.0000 0.68613  0.08897  0.22898  Biso   1.000  C
  C29      1.0000 0.64424  0.09000  0.17411  Biso   1.000  C
  C30      1.0000 0.58957  0.08886  0.11134  Biso   1.000  C
  C31      1.0000 0.51117  0.08480  0.10870  Biso   1.000  C
  H13      1.0000 0.49550  0.08450  0.14690  Biso   1.000  H
  C32      1.0000 0.45731  0.08119  0.04938  Biso   1.000  C
  H14      1.0000 0.40540  0.07840  0.04750  Biso   1.000  H
  C33      1.0000 0.48157  0.08174  0.99208  Biso   1.000  C
  C34      1.0000 0.55928  0.08625  0.99413  Biso   1.000  C
  H15      1.0000 0.57470  0.08680  0.95580  Biso   1.000  H
  C35      1.0000 0.61323  0.08987  0.05372  Biso   1.000  C
  H16      1.0000 0.66510  0.09300  0.05550  Biso   1.000  H
  C36      1.0000 0.42512  0.07698  0.93086  Biso   1.000  C
  N4       1.0000 0.37998  0.07243  0.88219  Biso   1.000  N
  C37      1.0000 0.80570  0.92269  0.28288  Biso   1.000  C
  C38      1.0000 0.85293  0.92207  0.33562  Biso   1.000  C
  C39      1.0000 0.90822  0.91951  0.39785  Biso   1.000  C
  C40      1.0000 0.88335  0.91680  0.45489  Biso   1.000  C
  H17      1.0000 0.83120  0.91620  0.45240  Biso   1.000  H
  C41      1.0000 0.93635  0.91498  0.51485  Biso   1.000  C
  H18      1.0000 0.92030  0.91310  0.55290  Biso   1.000  H
  C42      1.0000 0.01420  0.91593  0.51731  Biso   1.000  C
  C43      1.0000 0.03985  0.91794  0.46102  Biso   1.000  C
  H19      1.0000 0.09210  0.91790  0.46370  Biso   1.000  H
  C44      1.0000 0.98672  0.92002  0.40117  Biso   1.000  C
  H20      1.0000 0.00300  0.92170  0.36330  Biso   1.000  H
  C45      1.0000 0.07091  0.91640  0.57894  Biso   1.000  C
  N5       1.0000 0.11714  0.91815  0.62715  Biso   1.000  N
  C46      1.0000 0.67176  0.75499  0.20833  Biso   1.000  C
  C47      1.0000 0.62210  0.75810  0.15691  Biso   1.000  C
  C48      1.0000 0.56568  0.75671  0.09459  Biso   1.000  C
  C49      1.0000 0.48742  0.75470  0.09204  Biso   1.000  C
  H21      1.0000 0.47180  0.75550  0.13020  Biso   1.000  H
  C50      1.0000 0.43335  0.75155  0.03245  Biso   1.000  C
  H22      1.0000 0.38140  0.75070  0.03060  Biso   1.000  H
  C51      1.0000 0.45724  0.74973  0.97543  Biso   1.000  C
  C52      1.0000 0.53541  0.75210  0.97735  Biso   1.000  C
  H23      1.0000 0.55090  0.75090  0.93910  Biso   1.000  H
  C53      1.0000 0.58912  0.75633  0.03689  Biso   1.000  C
  H24      1.0000 0.64100  0.75890  0.03860  Biso   1.000  H
  C54      1.0000 0.39957  0.74469  0.91469  Biso   1.000  C
  N6       1.0000 0.35182  0.73961  0.86749  Biso   1.000  N
  Ag17     1.0000 0.15067  0.44033  0.81721  Biso   1.000  Ag
  Ag18     1.0000 0.23429  0.32660  0.79295  Biso   1.000  Ag
  Ag19     1.0000 0.29113  0.45918  0.78983  Biso   1.000  Ag
  Ag20     1.0000 0.21052  0.56666  0.70306  Biso   1.000  Ag
  Ag21     1.0000 0.37000  0.59014  0.70149  Biso   1.000  Ag
  Ag22     1.0000 0.27727  0.69319  0.77083  Biso   1.000  Ag
  Ag23     1.0000 0.11461  0.66495  0.75588  Biso   1.000  Ag
  Ag24     1.0000 0.17596  0.79720  0.79996  Biso   1.000  Ag
  C55      1.0000 0.18613  0.41103  0.72898  Biso   1.000  C
  C56      1.0000 0.14424  0.41000  0.67411  Biso   1.000  C
  C57      1.0000 0.08957  0.41114  0.61134  Biso   1.000  C
  C58      1.0000 0.01117  0.41520  0.60870  Biso   1.000  C
  H25      1.0000 0.99550  0.41550  0.64690  Biso   1.000  H
  C59      1.0000 0.95731  0.41881  0.54938  Biso   1.000  C
  H26      1.0000 0.90540  0.42160  0.54750  Biso   1.000  H
  C60      1.0000 0.98157  0.41826  0.49208  Biso   1.000  C
  C61      1.0000 0.05928  0.41375  0.49413  Biso   1.000  C
  H27      1.0000 0.07470  0.41320  0.45580  Biso   1.000  H
  C62      1.0000 0.11323  0.41013  0.55372  Biso   1.000  C
  H28      1.0000 0.16510  0.40700  0.55550  Biso   1.000  H
  C63      1.0000 0.92512  0.42302  0.43086  Biso   1.000  C
  N7       1.0000 0.87998  0.42757  0.38219  Biso   1.000  N
  C64      1.0000 0.30570  0.57731  0.78288  Biso   1.000  C
  C65      1.0000 0.35293  0.57793  0.83562  Biso   1.000  C
  C66      1.0000 0.40822  0.58049  0.89785  Biso   1.000  C
  C67      1.0000 0.38335  0.58320  0.95489  Biso   1.000  C
  H29      1.0000 0.33120  0.58380  0.95240  Biso   1.000  H
  C68      1.0000 0.43635  0.58502  0.01485  Biso   1.000  C
  H30      1.0000 0.42030  0.58690  0.05290  Biso   1.000  H
  C69      1.0000 0.51420  0.58407  0.01731  Biso   1.000  C
  C70      1.0000 0.53985  0.58206  0.96102  Biso   1.000  C
  H31      1.0000 0.59210  0.58210  0.96370  Biso   1.000  H
  C71      1.0000 0.48672  0.57998  0.90117  Biso   1.000  C
  H32      1.0000 0.50300  0.57830  0.86330  Biso   1.000  H
  C72      1.0000 0.57091  0.58360  0.07894  Biso   1.000  C
  N8       1.0000 0.61714  0.58185  0.12715  Biso   1.000  N
  C73      1.0000 0.17176  0.74501  0.70833  Biso   1.000  C
  C74      1.0000 0.12210  0.74190  0.65691  Biso   1.000  C
  C75      1.0000 0.06568  0.74329  0.59459  Biso   1.000  C
  C76      1.0000 0.98742  0.74530  0.59204  Biso   1.000  C
  H33      1.0000 0.97180  0.74450  0.63020  Biso   1.000  H
  C77      1.0000 0.93335  0.74845  0.53245  Biso   1.000  C
  H34      1.0000 0.88140  0.74930  0.53060  Biso   1.000  H
  C78      1.0000 0.95724  0.75027  0.47543  Biso   1.000  C
  C79      1.0000 0.03541  0.74790  0.47735  Biso   1.000  C
  H35      1.0000 0.05090  0.74910  0.43910  Biso   1.000  H
  C80      1.0000 0.08912  0.74367  0.53689  Biso   1.000  C
  H36      1.0000 0.14100  0.74110  0.53860  Biso   1.000  H
  C81      1.0000 0.89957  0.75531  0.41469  Biso   1.000  C
  N9       1.0000 0.85182  0.76039  0.36749  Biso   1.000  N
  Ag25     1.0000 0.34933  0.94033  0.68279  Biso   1.000  Ag
  Ag26     1.0000 0.26571  0.82660  0.70705  Biso   1.000  Ag
  Ag27     1.0000 0.20887  0.95918  0.71018  Biso   1.000  Ag
  Ag28     1.0000 0.28948  0.06666  0.79694  Biso   1.000  Ag
  Ag29     1.0000 0.13000  0.09014  0.79851  Biso   1.000  Ag
  Ag30     1.0000 0.22273  0.19319  0.72917  Biso   1.000  Ag
  Ag31     1.0000 0.38539  0.16495  0.74412  Biso   1.000  Ag
  Ag32     1.0000 0.32404  0.29720  0.70004  Biso   1.000  Ag
  C82      1.0000 0.31387  0.91103  0.77102  Biso   1.000  C
  C83      1.0000 0.35576  0.91000  0.82589  Biso   1.000  C
  C84      1.0000 0.41043  0.91114  0.88866  Biso   1.000  C
  C85      1.0000 0.48883  0.91520  0.89130  Biso   1.000  C
  H37      1.0000 0.50450  0.91550  0.85310  Biso   1.000  H
  C86      1.0000 0.54269  0.91881  0.95062  Biso   1.000  C
  H38      1.0000 0.59460  0.92160  0.95250  Biso   1.000  H
  C87      1.0000 0.51843  0.91826  0.00792  Biso   1.000  C
  C88      1.0000 0.44072  0.91375  0.00587  Biso   1.000  C
  H39      1.0000 0.42530  0.91320  0.04420  Biso   1.000  H
  C89      1.0000 0.38677  0.91013  0.94628  Biso   1.000  C
  H40      1.0000 0.33490  0.90700  0.94450  Biso   1.000  H
  C90      1.0000 0.57488  0.92302  0.06914  Biso   1.000  C
  N10      1.0000 0.62002  0.92757  0.11781  Biso   1.000  N
  C91      1.0000 0.19430  0.07731  0.71712  Biso   1.000  C
  C92      1.0000 0.14707  0.07793  0.66438  Biso   1.000  C
  C93      1.0000 0.09178  0.08049  0.60215  Biso   1.000  C
  C94      1.0000 0.11665  0.08320  0.54511  Biso   1.000  C
  H41      1.0000 0.16880  0.08380  0.54760  Biso   1.000  H
  C95      1.0000 0.06365  0.08502  0.48515  Biso   1.000  C
  H42      1.0000 0.07970  0.08690  0.44710  Biso   1.000  H
  C96      1.0000 0.98580  0.08407  0.48269  Biso   1.000  C
  C97      1.0000 0.96015  0.08206  0.53898  Biso   1.000  C
  H43      1.0000 0.90790  0.08210  0.53630  Biso   1.000  H
  C98      1.0000 0.01328  0.07998  0.59883  Biso   1.000  C
  H44      1.0000 0.99700  0.07830  0.63670  Biso   1.000  H
  C99      1.0000 0.92909  0.08360  0.42106  Biso   1.000  C
  N11      1.0000 0.88286  0.08185  0.37285  Biso   1.000  N
  C100     1.0000 0.32824  0.24501  0.79167  Biso   1.000  C
  C101     1.0000 0.37790  0.24190  0.84309  Biso   1.000  C
  C102     1.0000 0.43432  0.24329  0.90541  Biso   1.000  C
  C103     1.0000 0.51258  0.24530  0.90796  Biso   1.000  C
  H45      1.0000 0.52820  0.24450  0.86980  Biso   1.000  H
  C104     1.0000 0.56665  0.24845  0.96755  Biso   1.000  C
  H46      1.0000 0.61860  0.24930  0.96940  Biso   1.000  H
  C105     1.0000 0.54276  0.25027  0.02457  Biso   1.000  C
  C106     1.0000 0.46459  0.24790  0.02265  Biso   1.000  C
  H47      1.0000 0.44910  0.24910  0.06090  Biso   1.000  H
  C107     1.0000 0.41088  0.24367  0.96311  Biso   1.000  C
  H48      1.0000 0.35900  0.24110  0.96140  Biso   1.000  H
  C108     1.0000 0.60043  0.25531  0.08531  Biso   1.000  C
  N12      1.0000 0.64818  0.26039  0.13251  Biso   1.000  N
  Ag33     1.0000 0.28323  0.49976  0.21552  Biso   1.000  Ag
  Ag34     1.0000 0.18459  0.48187  0.30204  Biso   1.000  Ag
  Ag35     1.0000 0.12202  0.34597  0.26434  Biso   1.000  Ag
  Ag36     1.0000 0.28573  0.36730  0.28483  Biso   1.000  Ag
  Ag37     1.0000 0.21687  0.24273  0.21148  Biso   1.000  Ag
  Ag38     1.0000 0.37192  0.26491  0.20135  Biso   1.000  Ag
  Ag39     1.0000 0.29032  0.12532  0.28393  Biso   1.000  Ag
  Ag40     1.0000 0.14704  0.12288  0.30934  Biso   1.000  Ag
  C109     1.0000 0.18633  0.42073  0.21685  Biso   1.000  C
  C110     1.0000 0.13754  0.41724  0.16457  Biso   1.000  C
  C111     1.0000 0.08425  0.41636  0.10120  Biso   1.000  C
  C112     1.0000 0.11127  0.41127  0.04535  Biso   1.000  C
  H49      1.0000 0.16360  0.40800  0.04930  Biso   1.000  H
  C113     1.0000 0.06011  0.41105  0.98437  Biso   1.000  C
  H50      1.0000 0.07780  0.40830  0.94730  Biso   1.000  H
  C114     1.0000 0.98163  0.41494  0.97924  Biso   1.000  C
  C115     1.0000 0.95383  0.42012  0.03443  Biso   1.000  C
  H51      1.0000 0.90140  0.42270  0.03030  Biso   1.000  H
  C116     1.0000 0.00510  0.42135  0.09518  Biso   1.000  C
  H52      1.0000 0.98720  0.42550  0.13210  Biso   1.000  H
  C117     1.0000 0.92748  0.41183  0.91655  Biso   1.000  C
  N13      1.0000 0.88319  0.40779  0.86751  Biso   1.000  N
  C118     1.0000 0.31376  0.24971  0.28727  Biso   1.000  C
  C119     1.0000 0.36026  0.25157  0.33974  Biso   1.000  C
  C120     1.0000 0.41590  0.25197  0.40165  Biso   1.000  C
  C121     1.0000 0.39189  0.25339  0.45902  Biso   1.000  C
  H53      1.0000 0.33990  0.25460  0.45700  Biso   1.000  H
  C122     1.0000 0.44580  0.25300  0.51882  Biso   1.000  C
  H54      1.0000 0.43060  0.25340  0.55730  Biso   1.000  H
  C123     1.0000 0.52295  0.25207  0.51992  Biso   1.000  C
  C124     1.0000 0.54816  0.25156  0.46310  Biso   1.000  C
  H55      1.0000 0.60020  0.25140  0.46530  Biso   1.000  H
  C125     1.0000 0.49406  0.25135  0.40382  Biso   1.000  C
  H56      1.0000 0.50950  0.25080  0.36550  Biso   1.000  H
  C126     1.0000 0.58014  0.25268  0.58091  Biso   1.000  C
  N14      1.0000 0.62643  0.25348  0.62860  Biso   1.000  N
  C127     1.0000 0.18145  0.08815  0.22088  Biso   1.000  C
  C128     1.0000 0.13639  0.08489  0.16752  Biso   1.000  C
  C129     1.0000 0.07941  0.08301  0.10622  Biso   1.000  C
  C130     1.0000 0.10009  0.08381  0.04715  Biso   1.000  C
  H57      1.0000 0.15160  0.08400  0.04740  Biso   1.000  H
  C131     1.0000 0.04416  0.08430  0.98845  Biso   1.000  C
  H58      1.0000 0.05790  0.08520  0.94940  Biso   1.000  H
  C132     1.0000 0.96687  0.08345  0.98867  Biso   1.000  C
  C133     1.0000 0.94561  0.08210  0.04727  Biso   1.000  C
  H59      1.0000 0.89410  0.08150  0.04700  Biso   1.000  H
  C134     1.0000 0.00177  0.08168  0.10543  Biso   1.000  C
  H60      1.0000 0.98780  0.08050  0.14440  Biso   1.000  H
  C135     1.0000 0.90751  0.08552  0.92887  Biso   1.000  C
  N15      1.0000 0.85910  0.08838  0.88181  Biso   1.000  N
  Ag41     1.0000 0.21677  0.99976  0.28448  Biso   1.000  Ag
  Ag42     1.0000 0.31541  0.98187  0.19796  Biso   1.000  Ag
  Ag43     1.0000 0.37798  0.84597  0.23566  Biso   1.000  Ag
  Ag44     1.0000 0.21427  0.86730  0.21517  Biso   1.000  Ag
  Ag45     1.0000 0.28313  0.74273  0.28852  Biso   1.000  Ag
  Ag46     1.0000 0.12808  0.76491  0.29865  Biso   1.000  Ag
  Ag47     1.0000 0.20968  0.62532  0.21607  Biso   1.000  Ag
  Ag48     1.0000 0.35296  0.62288  0.19066  Biso   1.000  Ag
  C136     1.0000 0.31367  0.92073  0.28315  Biso   1.000  C
  C137     1.0000 0.36246  0.91724  0.33543  Biso   1.000  C
  C138     1.0000 0.41575  0.91636  0.39880  Biso   1.000  C
  C139     1.0000 0.38873  0.91127  0.45465  Biso   1.000  C
  H61      1.0000 0.33640  0.90800  0.45070  Biso   1.000  H
  C140     1.0000 0.43989  0.91105  0.51563  Biso   1.000  C
  H62      1.0000 0.42220  0.90830  0.55270  Biso   1.000  H
  C141     1.0000 0.51837  0.91494  0.52076  Biso   1.000  C
  C142     1.0000 0.54617  0.92012  0.46557  Biso   1.000  C
  H63      1.0000 0.59860  0.92270  0.46970  Biso   1.000  H
  C143     1.0000 0.49490  0.92135  0.40482  Biso   1.000  C
  H64      1.0000 0.51280  0.92550  0.36790  Biso   1.000  H
  C144     1.0000 0.57252  0.91183  0.58345  Biso   1.000  C
  N16      1.0000 0.61681  0.90779  0.63249  Biso   1.000  N
  C145     1.0000 0.18624  0.74971  0.21273  Biso   1.000  C
  C146     1.0000 0.13974  0.75157  0.16026  Biso   1.000  C
  C147     1.0000 0.08410  0.75197  0.09835  Biso   1.000  C
  C148     1.0000 0.10811  0.75339  0.04098  Biso   1.000  C
  H65      1.0000 0.16010  0.75460  0.04300  Biso   1.000  H
  C149     1.0000 0.05420  0.75300  0.98118  Biso   1.000  C
  H66      1.0000 0.06940  0.75340  0.94270  Biso   1.000  H
  C150     1.0000 0.97705  0.75207  0.98008  Biso   1.000  C
  C151     1.0000 0.95184  0.75156  0.03690  Biso   1.000  C
  H67      1.0000 0.89980  0.75140  0.03470  Biso   1.000  H
  C152     1.0000 0.00594  0.75135  0.09618  Biso   1.000  C
  H68      1.0000 0.99050  0.75080  0.13450  Biso   1.000  H
  C153     1.0000 0.91986  0.75268  0.91909  Biso   1.000  C
  N17      1.0000 0.87357  0.75348  0.87140  Biso   1.000  N
  C154     1.0000 0.31855  0.58815  0.27912  Biso   1.000  C
  C155     1.0000 0.36361  0.58489  0.33248  Biso   1.000  C
  C156     1.0000 0.42059  0.58301  0.39378  Biso   1.000  C
  C157     1.0000 0.39991  0.58381  0.45285  Biso   1.000  C
  H69      1.0000 0.34840  0.58400  0.45260  Biso   1.000  H
  C158     1.0000 0.45584  0.58430  0.51155  Biso   1.000  C
  H70      1.0000 0.44210  0.58520  0.55060  Biso   1.000  H
  C159     1.0000 0.53313  0.58345  0.51133  Biso   1.000  C
  C160     1.0000 0.55439  0.58210  0.45273  Biso   1.000  C
  H71      1.0000 0.60590  0.58150  0.45300  Biso   1.000  H
  C161     1.0000 0.49823  0.58168  0.39457  Biso   1.000  C
  H72      1.0000 0.51220  0.58050  0.35560  Biso   1.000  H
  C162     1.0000 0.59249  0.58552  0.57113  Biso   1.000  C
  N18      1.0000 0.64090  0.58838  0.61819  Biso   1.000  N
  Ag49     1.0000 0.71677  0.50024  0.78448  Biso   1.000  Ag
  Ag50     1.0000 0.81541  0.51813  0.69796  Biso   1.000  Ag
  Ag51     1.0000 0.87798  0.65403  0.73566  Biso   1.000  Ag
  Ag52     1.0000 0.71427  0.63270  0.71517  Biso   1.000  Ag
  Ag53     1.0000 0.78313  0.75727  0.78852  Biso   1.000  Ag
  Ag54     1.0000 0.62808  0.73509  0.79865  Biso   1.000  Ag
  Ag55     1.0000 0.70968  0.87468  0.71607  Biso   1.000  Ag
  Ag56     1.0000 0.85296  0.87712  0.69066  Biso   1.000  Ag
  C163     1.0000 0.81367  0.57927  0.78315  Biso   1.000  C
  C164     1.0000 0.86246  0.58276  0.83543  Biso   1.000  C
  C165     1.0000 0.91575  0.58364  0.89880  Biso   1.000  C
  C166     1.0000 0.88873  0.58873  0.95465  Biso   1.000  C
  H73      1.0000 0.83640  0.59200  0.95070  Biso   1.000  H
  C167     1.0000 0.93989  0.58895  0.01563  Biso   1.000  C
  H74      1.0000 0.92220  0.59170  0.05270  Biso   1.000  H
  C168     1.0000 0.01837  0.58506  0.02076  Biso   1.000  C
  C169     1.0000 0.04617  0.57988  0.96557  Biso   1.000  C
  H75      1.0000 0.09860  0.57730  0.96970  Biso   1.000  H
  C170     1.0000 0.99490  0.57865  0.90482  Biso   1.000  C
  H76      1.0000 0.01280  0.57450  0.86790  Biso   1.000  H
  C171     1.0000 0.07252  0.58817  0.08345  Biso   1.000  C
  N19      1.0000 0.11681  0.59221  0.13249  Biso   1.000  N
  C172     1.0000 0.68624  0.75029  0.71273  Biso   1.000  C
  C173     1.0000 0.63974  0.74843  0.66026  Biso   1.000  C
  C174     1.0000 0.58410  0.74803  0.59835  Biso   1.000  C
  C175     1.0000 0.60811  0.74661  0.54098  Biso   1.000  C
  H77      1.0000 0.66010  0.74540  0.54300  Biso   1.000  H
  C176     1.0000 0.55420  0.74700  0.48118  Biso   1.000  C
  H78      1.0000 0.56940  0.74660  0.44270  Biso   1.000  H
  C177     1.0000 0.47705  0.74793  0.48008  Biso   1.000  C
  C178     1.0000 0.45184  0.74844  0.53690  Biso   1.000  C
  H79      1.0000 0.39980  0.74860  0.53470  Biso   1.000  H
  C179     1.0000 0.50594  0.74865  0.59618  Biso   1.000  C
  H80      1.0000 0.49050  0.74920  0.63450  Biso   1.000  H
  C180     1.0000 0.41986  0.74732  0.41909  Biso   1.000  C
  N20      1.0000 0.37357  0.74652  0.37140  Biso   1.000  N
  C181     1.0000 0.81855  0.91185  0.77912  Biso   1.000  C
  C182     1.0000 0.86361  0.91511  0.83248  Biso   1.000  C
  C183     1.0000 0.92059  0.91699  0.89378  Biso   1.000  C
  C184     1.0000 0.89991  0.91619  0.95285  Biso   1.000  C
  H81      1.0000 0.84840  0.91600  0.95260  Biso   1.000  H
  C185     1.0000 0.95584  0.91570  0.01155  Biso   1.000  C
  H82      1.0000 0.94210  0.91480  0.05060  Biso   1.000  H
  C186     1.0000 0.03313  0.91655  0.01133  Biso   1.000  C
  C187     1.0000 0.05439  0.91790  0.95273  Biso   1.000  C
  H83      1.0000 0.10590  0.91850  0.95300  Biso   1.000  H
  C188     1.0000 0.99823  0.91832  0.89457  Biso   1.000  C
  H84      1.0000 0.01220  0.91950  0.85560  Biso   1.000  H
  C189     1.0000 0.09249  0.91448  0.07113  Biso   1.000  C
  N21      1.0000 0.14090  0.91162  0.11819  Biso   1.000  N
  Ag57     1.0000 0.78323  0.00024  0.71552  Biso   1.000  Ag
  Ag58     1.0000 0.68459  0.01813  0.80204  Biso   1.000  Ag
  Ag59     1.0000 0.62202  0.15403  0.76434  Biso   1.000  Ag
  Ag60     1.0000 0.78573  0.13270  0.78483  Biso   1.000  Ag
  Ag61     1.0000 0.71687  0.25727  0.71148  Biso   1.000  Ag
  Ag62     1.0000 0.87192  0.23509  0.70135  Biso   1.000  Ag
  Ag63     1.0000 0.79032  0.37468  0.78393  Biso   1.000  Ag
  Ag64     1.0000 0.64704  0.37712  0.80934  Biso   1.000  Ag
  C190     1.0000 0.68633  0.07927  0.71685  Biso   1.000  C
  C191     1.0000 0.63754  0.08276  0.66457  Biso   1.000  C
  C192     1.0000 0.58425  0.08364  0.60120  Biso   1.000  C
  C193     1.0000 0.61127  0.08873  0.54535  Biso   1.000  C
  H85      1.0000 0.66360  0.09200  0.54930  Biso   1.000  H
  C194     1.0000 0.56011  0.08895  0.48437  Biso   1.000  C
  H86      1.0000 0.57780  0.09170  0.44730  Biso   1.000  H
  C195     1.0000 0.48163  0.08506  0.47924  Biso   1.000  C
  C196     1.0000 0.45383  0.07988  0.53443  Biso   1.000  C
  H87      1.0000 0.40140  0.07730  0.53030  Biso   1.000  H
  C197     1.0000 0.50510  0.07865  0.59518  Biso   1.000  C
  H88      1.0000 0.48720  0.07450  0.63210  Biso   1.000  H
  C198     1.0000 0.42748  0.08817  0.41655  Biso   1.000  C
  N22      1.0000 0.38319  0.09221  0.36751  Biso   1.000  N
  C199     1.0000 0.81376  0.25029  0.78727  Biso   1.000  C
  C200     1.0000 0.86026  0.24843  0.83974  Biso   1.000  C
  C201     1.0000 0.91590  0.24803  0.90165  Biso   1.000  C
  C202     1.0000 0.89189  0.24661  0.95902  Biso   1.000  C
  H89      1.0000 0.83990  0.24540  0.95700  Biso   1.000  H
  C203     1.0000 0.94580  0.24700  0.01882  Biso   1.000  C
  H90      1.0000 0.93060  0.24660  0.05730  Biso   1.000  H
  C204     1.0000 0.02295  0.24793  0.01992  Biso   1.000  C
  C205     1.0000 0.04816  0.24844  0.96310  Biso   1.000  C
  H91      1.0000 0.10020  0.24860  0.96530  Biso   1.000  H
  C206     1.0000 0.99406  0.24865  0.90382  Biso   1.000  C
  H92      1.0000 0.00950  0.24920  0.86550  Biso   1.000  H
  C207     1.0000 0.08014  0.24732  0.08091  Biso   1.000  C
  N23      1.0000 0.12643  0.24652  0.12860  Biso   1.000  N
  C208     1.0000 0.68145  0.41185  0.72088  Biso   1.000  C
  C209     1.0000 0.63639  0.41511  0.66752  Biso   1.000  C
  C210     1.0000 0.57941  0.41699  0.60622  Biso   1.000  C
  C211     1.0000 0.60009  0.41619  0.54715  Biso   1.000  C
  H93      1.0000 0.65160  0.41600  0.54740  Biso   1.000  H
  C212     1.0000 0.54416  0.41570  0.48845  Biso   1.000  C
  H94      1.0000 0.55790  0.41480  0.44940  Biso   1.000  H
  C213     1.0000 0.46687  0.41655  0.48867  Biso   1.000  C
  C214     1.0000 0.44561  0.41790  0.54727  Biso   1.000  C
  H95      1.0000 0.39410  0.41850  0.54700  Biso   1.000  H
  C215     1.0000 0.50177  0.41832  0.60543  Biso   1.000  C
  H96      1.0000 0.48780  0.41950  0.64440  Biso   1.000  H
  C216     1.0000 0.40751  0.41448  0.42887  Biso   1.000  C
  N24      1.0000 0.35910  0.41162  0.38181  Biso   1.000  N
