data_image0
_cell_length_a       10.17
_cell_length_b       20.659
_cell_length_c       7.672
_cell_angle_alpha    90
_cell_angle_beta     104.26
_cell_angle_gamma    90

_symmetry_space_group_name_H-M    "P 1"
_symmetry_int_tables_number       1

loop_
  _symmetry_equiv_pos_as_xyz
  'x, y, z'

loop_
  _atom_site_label
  _atom_site_occupancy
  _atom_site_fract_x
  _atom_site_fract_y
  _atom_site_fract_z
  _atom_site_thermal_displace_type
  _atom_site_B_iso_or_equiv
  _atom_site_type_symbol
  O1       1.0000 0.65867  0.56627  0.79600  Biso   1.000  O
  O2       1.0000 0.74810  0.65886  0.74320  Biso   1.000  O
  C1       1.0000 0.88380  0.28842  0.70760  Biso   1.000  C
  H1       1.0000 0.80230  0.26580  0.67920  Biso   1.000  H
  C2       1.0000 0.88010  0.35496  0.70440  Biso   1.000  C
  H2       1.0000 0.79710  0.37630  0.67170  Biso   1.000  H
  C3       1.0000 0.88480  0.49668  0.76270  Biso   1.000  C
  H3       1.0000 0.80750  0.47430  0.77210  Biso   1.000  H
  C4       1.0000 0.88380  0.56407  0.76140  Biso   1.000  C
  C5       1.0000 0.75580  0.59869  0.76930  Biso   1.000  C
  O3       1.0000 0.15867  0.06627  0.79600  Biso   1.000  O
  O4       1.0000 0.24810  0.15886  0.74320  Biso   1.000  O
  C6       1.0000 0.38380  0.78842  0.70760  Biso   1.000  C
  H4       1.0000 0.30230  0.76580  0.67920  Biso   1.000  H
  C7       1.0000 0.38010  0.85496  0.70440  Biso   1.000  C
  H5       1.0000 0.29710  0.87630  0.67170  Biso   1.000  H
  C8       1.0000 0.38480  0.99668  0.76270  Biso   1.000  C
  H6       1.0000 0.30750  0.97430  0.77210  Biso   1.000  H
  C9       1.0000 0.38380  0.06407  0.76140  Biso   1.000  C
  C10      1.0000 0.25580  0.09869  0.76930  Biso   1.000  C
  O5       1.0000 0.34133  0.56627  0.70400  Biso   1.000  O
  O6       1.0000 0.25190  0.65886  0.75680  Biso   1.000  O
  C11      1.0000 0.11620  0.28842  0.79240  Biso   1.000  C
  H7       1.0000 0.19770  0.26580  0.82080  Biso   1.000  H
  C12      1.0000 0.11990  0.35496  0.79560  Biso   1.000  C
  H8       1.0000 0.20290  0.37630  0.82830  Biso   1.000  H
  C13      1.0000 0.11520  0.49668  0.73730  Biso   1.000  C
  H9       1.0000 0.19250  0.47430  0.72790  Biso   1.000  H
  C14      1.0000 0.11620  0.56407  0.73860  Biso   1.000  C
  C15      1.0000 0.24420  0.59869  0.73070  Biso   1.000  C
  O7       1.0000 0.84133  0.06627  0.70400  Biso   1.000  O
  O8       1.0000 0.75190  0.15886  0.75680  Biso   1.000  O
  C16      1.0000 0.61620  0.78842  0.79240  Biso   1.000  C
  H10      1.0000 0.69770  0.76580  0.82080  Biso   1.000  H
  C17      1.0000 0.61990  0.85496  0.79560  Biso   1.000  C
  H11      1.0000 0.70290  0.87630  0.82830  Biso   1.000  H
  C18      1.0000 0.61520  0.99668  0.73730  Biso   1.000  C
  H12      1.0000 0.69250  0.97430  0.72790  Biso   1.000  H
  C19      1.0000 0.61620  0.06407  0.73860  Biso   1.000  C
  C20      1.0000 0.74420  0.09869  0.73070  Biso   1.000  C
  Cd1      1.0000 0.50000  0.64462  0.75000  Biso   1.000  Cd
  Cd2      1.0000 0.00000  0.14462  0.75000  Biso   1.000  Cd
  N1       1.0000 0.00000  0.25479  0.75000  Biso   1.000  N
  C21      1.0000 0.00000  0.39051  0.75000  Biso   1.000  C
  C22      1.0000 0.00000  0.46234  0.75000  Biso   1.000  C
  C23      1.0000 0.00000  0.59732  0.75000  Biso   1.000  C
  H13      1.0000 0.00000  0.64230  0.75000  Biso   1.000  H
  N2       1.0000 0.50000  0.75479  0.75000  Biso   1.000  N
  C24      1.0000 0.50000  0.89051  0.75000  Biso   1.000  C
  C25      1.0000 0.50000  0.96234  0.75000  Biso   1.000  C
  C26      1.0000 0.50000  0.09732  0.75000  Biso   1.000  C
  H14      1.0000 0.50000  0.14230  0.75000  Biso   1.000  H
  O9       1.0000 0.34133  0.43373  0.20400  Biso   1.000  O
  O10      1.0000 0.25190  0.34114  0.25680  Biso   1.000  O
  C27      1.0000 0.11620  0.71158  0.29240  Biso   1.000  C
  H15      1.0000 0.19770  0.73420  0.32080  Biso   1.000  H
  C28      1.0000 0.11990  0.64504  0.29560  Biso   1.000  C
  H16      1.0000 0.20290  0.62370  0.32830  Biso   1.000  H
  C29      1.0000 0.11520  0.50332  0.23730  Biso   1.000  C
  H17      1.0000 0.19250  0.52570  0.22790  Biso   1.000  H
  C30      1.0000 0.11620  0.43593  0.23860  Biso   1.000  C
  C31      1.0000 0.24420  0.40131  0.23070  Biso   1.000  C
  O11      1.0000 0.84133  0.93373  0.20400  Biso   1.000  O
  O12      1.0000 0.75190  0.84114  0.25680  Biso   1.000  O
  C32      1.0000 0.61620  0.21158  0.29240  Biso   1.000  C
  H18      1.0000 0.69770  0.23420  0.32080  Biso   1.000  H
  C33      1.0000 0.61990  0.14504  0.29560  Biso   1.000  C
  H19      1.0000 0.70290  0.12370  0.32830  Biso   1.000  H
  C34      1.0000 0.61520  0.00332  0.23730  Biso   1.000  C
  H20      1.0000 0.69250  0.02570  0.22790  Biso   1.000  H
  C35      1.0000 0.61620  0.93593  0.23860  Biso   1.000  C
  C36      1.0000 0.74420  0.90131  0.23070  Biso   1.000  C
  O13      1.0000 0.65867  0.43373  0.29600  Biso   1.000  O
  O14      1.0000 0.74810  0.34114  0.24320  Biso   1.000  O
  C37      1.0000 0.88380  0.71158  0.20760  Biso   1.000  C
  H21      1.0000 0.80230  0.73420  0.17920  Biso   1.000  H
  C38      1.0000 0.88010  0.64504  0.20440  Biso   1.000  C
  H22      1.0000 0.79710  0.62370  0.17170  Biso   1.000  H
  C39      1.0000 0.88480  0.50332  0.26270  Biso   1.000  C
  H23      1.0000 0.80750  0.52570  0.27210  Biso   1.000  H
  C40      1.0000 0.88380  0.43593  0.26140  Biso   1.000  C
  C41      1.0000 0.75580  0.40131  0.26930  Biso   1.000  C
  O15      1.0000 0.15867  0.93373  0.29600  Biso   1.000  O
  O16      1.0000 0.24810  0.84114  0.24320  Biso   1.000  O
  C42      1.0000 0.38380  0.21158  0.20760  Biso   1.000  C
  H24      1.0000 0.30230  0.23420  0.17920  Biso   1.000  H
  C43      1.0000 0.38010  0.14504  0.20440  Biso   1.000  C
  H25      1.0000 0.29710  0.12370  0.17170  Biso   1.000  H
  C44      1.0000 0.38480  0.00332  0.26270  Biso   1.000  C
  H26      1.0000 0.30750  0.02570  0.27210  Biso   1.000  H
  C45      1.0000 0.38380  0.93593  0.26140  Biso   1.000  C
  C46      1.0000 0.25580  0.90131  0.26930  Biso   1.000  C
  Cd3      1.0000 0.50000  0.35538  0.25000  Biso   1.000  Cd
  Cd4      1.0000 0.00000  0.85538  0.25000  Biso   1.000  Cd
  N3       1.0000 0.00000  0.74521  0.25000  Biso   1.000  N
  C47      1.0000 0.00000  0.60949  0.25000  Biso   1.000  C
  C48      1.0000 0.00000  0.53766  0.25000  Biso   1.000  C
  C49      1.0000 0.00000  0.40268  0.25000  Biso   1.000  C
  H27      1.0000 0.00000  0.35770  0.25000  Biso   1.000  H
  N4       1.0000 0.50000  0.24521  0.25000  Biso   1.000  N
  C50      1.0000 0.50000  0.10949  0.25000  Biso   1.000  C
  C51      1.0000 0.50000  0.03766  0.25000  Biso   1.000  C
  C52      1.0000 0.50000  0.90268  0.25000  Biso   1.000  C
  H28      1.0000 0.50000  0.85770  0.25000  Biso   1.000  H
