data_image0
_cell_length_a       20.568
_cell_length_b       14.568
_cell_length_c       22.929
_cell_angle_alpha    90
_cell_angle_beta     90
_cell_angle_gamma    90

_symmetry_space_group_name_H-M    "P 1"
_symmetry_int_tables_number       1

loop_
  _symmetry_equiv_pos_as_xyz
  'x, y, z'

loop_
  _atom_site_label
  _atom_site_occupancy
  _atom_site_fract_x
  _atom_site_fract_y
  _atom_site_fract_z
  _atom_site_thermal_displace_type
  _atom_site_B_iso_or_equiv
  _atom_site_type_symbol
  Co1      1.0000 0.89469  0.01963  0.63990  Biso   1.000  Co
  C1       1.0000 0.82800  0.05370  0.76080  Biso   1.000  C
  S1       1.0000 0.81000  0.07600  0.82880  Biso   1.000  S
  S2       1.0000 0.79290  0.03180  0.82790  Biso   1.000  S
  C2       1.0000 0.82050  0.03070  0.76190  Biso   1.000  C
  N1       1.0000 0.96655  0.11211  0.67280  Biso   1.000  N
  N2       1.0000 0.02825  0.08190  0.68120  Biso   1.000  N
  H1       1.0000 0.04585  0.03420  0.66188  Biso   1.000  H
  N3       1.0000 0.05020  0.40237  0.83098  Biso   1.000  N
  N4       1.0000 0.04106  0.33390  0.87102  Biso   1.000  N
  H2       1.0000 0.04326  0.34220  0.90987  Biso   1.000  H
  N5       1.0000 0.85119  0.12528  0.58917  Biso   1.000  N
  N6       1.0000 0.88946  0.18457  0.55928  Biso   1.000  N
  H3       1.0000 0.93121  0.17334  0.54994  Biso   1.000  H
  N7       1.0000 0.66855  0.42505  0.59731  Biso   1.000  N
  N8       1.0000 0.67255  0.42631  0.53820  Biso   1.000  N
  H4       1.0000 0.64841  0.46305  0.51525  Biso   1.000  H
  N9       1.0000 0.84081  0.03459  0.71401  Biso   1.000  N
  C3       1.0000 0.06016  0.13130  0.72160  Biso   1.000  C
  C4       1.0000 0.01835  0.19840  0.74029  Biso   1.000  C
  C5       1.0000 0.96035  0.18440  0.70870  Biso   1.000  C
  C6       1.0000 0.90057  0.24070  0.71150  Biso   1.000  C
  H5       1.0000 0.86730  0.21500  0.68710  Biso   1.000  H
  H6       1.0000 0.91080  0.30210  0.69940  Biso   1.000  H
  H7       1.0000 0.88627  0.24340  0.75130  Biso   1.000  H
  C7       1.0000 0.12870  0.10960  0.73930  Biso   1.000  C
  H8       1.0000 0.13670  0.04470  0.73840  Biso   1.000  H
  H9       1.0000 0.13550  0.13430  0.77760  Biso   1.000  H
  H10      1.0000 0.15730  0.14190  0.71330  Biso   1.000  H
  C8       1.0000 0.04267  0.36170  0.77909  Biso   1.000  C
  C9       1.0000 0.02969  0.26740  0.78618  Biso   1.000  C
  C10      1.0000 0.02842  0.25290  0.84553  Biso   1.000  C
  C11      1.0000 0.01430  0.16860  0.87990  Biso   1.000  C
  H11      1.0000 0.04260  0.11970  0.86780  Biso   1.000  H
  H12      1.0000 0.96970  0.15130  0.87410  Biso   1.000  H
  H13      1.0000 0.02040  0.18130  0.92060  Biso   1.000  H
  C12      1.0000 0.04690  0.41360  0.72347  Biso   1.000  C
  H14      1.0000 0.03650  0.47700  0.73010  Biso   1.000  H
  H15      1.0000 0.01720  0.38780  0.69560  Biso   1.000  H
  H16      1.0000 0.09010  0.40840  0.70794  Biso   1.000  H
  C13      1.0000 0.85788  0.26219  0.54516  Biso   1.000  C
  C14      1.0000 0.79542  0.25409  0.56712  Biso   1.000  C
  C15      1.0000 0.79339  0.16679  0.59369  Biso   1.000  C
  C16      1.0000 0.73706  0.12110  0.62257  Biso   1.000  C
  H17      1.0000 0.69737  0.15070  0.61107  Biso   1.000  H
  H18      1.0000 0.74194  0.12470  0.66415  Biso   1.000  H
  H19      1.0000 0.73571  0.05750  0.61173  Biso   1.000  H
  C17      1.0000 0.88987  0.33750  0.51190  Biso   1.000  C
  H20      1.0000 0.93632  0.33320  0.51500  Biso   1.000  H
  H21      1.0000 0.87469  0.39520  0.52680  Biso   1.000  H
  H22      1.0000 0.87652  0.33340  0.47180  Biso   1.000  H
  C18      1.0000 0.71202  0.36267  0.61460  Biso   1.000  C
  C19      1.0000 0.74381  0.32372  0.56598  Biso   1.000  C
  C20      1.0000 0.71688  0.36660  0.51786  Biso   1.000  C
  C21      1.0000 0.72930  0.35670  0.45416  Biso   1.000  C
  H23      1.0000 0.69107  0.37260  0.43236  Biso   1.000  H
  H24      1.0000 0.74184  0.29460  0.44582  Biso   1.000  H
  H25      1.0000 0.76471  0.39610  0.44336  Biso   1.000  H
  C22      1.0000 0.72347  0.34240  0.67763  Biso   1.000  C
  H26      1.0000 0.75688  0.29680  0.68168  Biso   1.000  H
  H27      1.0000 0.68386  0.32080  0.69504  Biso   1.000  H
  H28      1.0000 0.73614  0.39780  0.69729  Biso   1.000  H
  Co2      1.0000 0.10531  0.51963  0.86010  Biso   1.000  Co
  C23      1.0000 0.17200  0.55370  0.73920  Biso   1.000  C
  S3       1.0000 0.19000  0.57600  0.67120  Biso   1.000  S
  S4       1.0000 0.20710  0.53180  0.67210  Biso   1.000  S
  C24      1.0000 0.17950  0.53070  0.73810  Biso   1.000  C
  N10      1.0000 0.03345  0.61211  0.82720  Biso   1.000  N
  N11      1.0000 0.97175  0.58190  0.81880  Biso   1.000  N
  H29      1.0000 0.95415  0.53420  0.83812  Biso   1.000  H
  N12      1.0000 0.94980  0.90237  0.66902  Biso   1.000  N
  N13      1.0000 0.95894  0.83390  0.62898  Biso   1.000  N
  H30      1.0000 0.95674  0.84220  0.59013  Biso   1.000  H
  N14      1.0000 0.14881  0.62528  0.91083  Biso   1.000  N
  N15      1.0000 0.11054  0.68457  0.94072  Biso   1.000  N
  H31      1.0000 0.06879  0.67334  0.95006  Biso   1.000  H
  N16      1.0000 0.33145  0.92505  0.90269  Biso   1.000  N
  N17      1.0000 0.32745  0.92631  0.96180  Biso   1.000  N
  H32      1.0000 0.35159  0.96305  0.98475  Biso   1.000  H
  N18      1.0000 0.15919  0.53459  0.78599  Biso   1.000  N
  C25      1.0000 0.93984  0.63130  0.77840  Biso   1.000  C
  C26      1.0000 0.98165  0.69840  0.75971  Biso   1.000  C
  C27      1.0000 0.03965  0.68440  0.79130  Biso   1.000  C
  C28      1.0000 0.09943  0.74070  0.78850  Biso   1.000  C
  H33      1.0000 0.13270  0.71500  0.81290  Biso   1.000  H
  H34      1.0000 0.08920  0.80210  0.80060  Biso   1.000  H
  H35      1.0000 0.11373  0.74340  0.74870  Biso   1.000  H
  C29      1.0000 0.87130  0.60960  0.76070  Biso   1.000  C
  H36      1.0000 0.86330  0.54470  0.76160  Biso   1.000  H
  H37      1.0000 0.86450  0.63430  0.72240  Biso   1.000  H
  H38      1.0000 0.84270  0.64190  0.78670  Biso   1.000  H
  C30      1.0000 0.95733  0.86170  0.72091  Biso   1.000  C
  C31      1.0000 0.97031  0.76740  0.71382  Biso   1.000  C
  C32      1.0000 0.97158  0.75290  0.65447  Biso   1.000  C
  C33      1.0000 0.98570  0.66860  0.62010  Biso   1.000  C
  H39      1.0000 0.95740  0.61970  0.63220  Biso   1.000  H
  H40      1.0000 0.03030  0.65130  0.62590  Biso   1.000  H
  H41      1.0000 0.97960  0.68130  0.57940  Biso   1.000  H
  C34      1.0000 0.95310  0.91360  0.77653  Biso   1.000  C
  H42      1.0000 0.96350  0.97700  0.76990  Biso   1.000  H
  H43      1.0000 0.98280  0.88780  0.80440  Biso   1.000  H
  H44      1.0000 0.90990  0.90840  0.79206  Biso   1.000  H
  C35      1.0000 0.14212  0.76219  0.95484  Biso   1.000  C
  C36      1.0000 0.20458  0.75409  0.93288  Biso   1.000  C
  C37      1.0000 0.20661  0.66679  0.90631  Biso   1.000  C
  C38      1.0000 0.26294  0.62110  0.87743  Biso   1.000  C
  H45      1.0000 0.30263  0.65070  0.88893  Biso   1.000  H
  H46      1.0000 0.25806  0.62470  0.83585  Biso   1.000  H
  H47      1.0000 0.26429  0.55750  0.88827  Biso   1.000  H
  C39      1.0000 0.11013  0.83750  0.98810  Biso   1.000  C
  H48      1.0000 0.06368  0.83320  0.98500  Biso   1.000  H
  H49      1.0000 0.12531  0.89520  0.97320  Biso   1.000  H
  H50      1.0000 0.12348  0.83340  0.02820  Biso   1.000  H
  C40      1.0000 0.28798  0.86267  0.88540  Biso   1.000  C
  C41      1.0000 0.25619  0.82372  0.93402  Biso   1.000  C
  C42      1.0000 0.28312  0.86660  0.98214  Biso   1.000  C
  C43      1.0000 0.27070  0.85670  0.04584  Biso   1.000  C
  H51      1.0000 0.30893  0.87260  0.06764  Biso   1.000  H
  H52      1.0000 0.25816  0.79460  0.05418  Biso   1.000  H
  H53      1.0000 0.23529  0.89610  0.05664  Biso   1.000  H
  C44      1.0000 0.27653  0.84240  0.82237  Biso   1.000  C
  H54      1.0000 0.24312  0.79680  0.81832  Biso   1.000  H
  H55      1.0000 0.31614  0.82080  0.80496  Biso   1.000  H
  H56      1.0000 0.26386  0.89780  0.80271  Biso   1.000  H
  Co3      1.0000 0.39469  0.01963  0.86010  Biso   1.000  Co
  C45      1.0000 0.32800  0.05370  0.73920  Biso   1.000  C
  S5       1.0000 0.31000  0.07600  0.67120  Biso   1.000  S
  S6       1.0000 0.29290  0.03180  0.67210  Biso   1.000  S
  C46      1.0000 0.32050  0.03070  0.73810  Biso   1.000  C
  N19      1.0000 0.46655  0.11211  0.82720  Biso   1.000  N
  N20      1.0000 0.52825  0.08190  0.81880  Biso   1.000  N
  H57      1.0000 0.54585  0.03420  0.83812  Biso   1.000  H
  N21      1.0000 0.55020  0.40237  0.66902  Biso   1.000  N
  N22      1.0000 0.54106  0.33390  0.62898  Biso   1.000  N
  H58      1.0000 0.54326  0.34220  0.59013  Biso   1.000  H
  N23      1.0000 0.35119  0.12528  0.91083  Biso   1.000  N
  N24      1.0000 0.38946  0.18457  0.94072  Biso   1.000  N
  H59      1.0000 0.43121  0.17334  0.95006  Biso   1.000  H
  N25      1.0000 0.16855  0.42505  0.90269  Biso   1.000  N
  N26      1.0000 0.17255  0.42631  0.96180  Biso   1.000  N
  H60      1.0000 0.14841  0.46305  0.98475  Biso   1.000  H
  N27      1.0000 0.34081  0.03459  0.78599  Biso   1.000  N
  C47      1.0000 0.56016  0.13130  0.77840  Biso   1.000  C
  C48      1.0000 0.51835  0.19840  0.75971  Biso   1.000  C
  C49      1.0000 0.46035  0.18440  0.79130  Biso   1.000  C
  C50      1.0000 0.40057  0.24070  0.78850  Biso   1.000  C
  H61      1.0000 0.36730  0.21500  0.81290  Biso   1.000  H
  H62      1.0000 0.41080  0.30210  0.80060  Biso   1.000  H
  H63      1.0000 0.38627  0.24340  0.74870  Biso   1.000  H
  C51      1.0000 0.62870  0.10960  0.76070  Biso   1.000  C
  H64      1.0000 0.63670  0.04470  0.76160  Biso   1.000  H
  H65      1.0000 0.63550  0.13430  0.72240  Biso   1.000  H
  H66      1.0000 0.65730  0.14190  0.78670  Biso   1.000  H
  C52      1.0000 0.54267  0.36170  0.72091  Biso   1.000  C
  C53      1.0000 0.52969  0.26740  0.71382  Biso   1.000  C
  C54      1.0000 0.52842  0.25290  0.65447  Biso   1.000  C
  C55      1.0000 0.51430  0.16860  0.62010  Biso   1.000  C
  H67      1.0000 0.54260  0.11970  0.63220  Biso   1.000  H
  H68      1.0000 0.46970  0.15130  0.62590  Biso   1.000  H
  H69      1.0000 0.52040  0.18130  0.57940  Biso   1.000  H
  C56      1.0000 0.54690  0.41360  0.77653  Biso   1.000  C
  H70      1.0000 0.53650  0.47700  0.76990  Biso   1.000  H
  H71      1.0000 0.51720  0.38780  0.80440  Biso   1.000  H
  H72      1.0000 0.59010  0.40840  0.79206  Biso   1.000  H
  C57      1.0000 0.35788  0.26219  0.95484  Biso   1.000  C
  C58      1.0000 0.29542  0.25409  0.93288  Biso   1.000  C
  C59      1.0000 0.29339  0.16679  0.90631  Biso   1.000  C
  C60      1.0000 0.23706  0.12110  0.87743  Biso   1.000  C
  H73      1.0000 0.19737  0.15070  0.88893  Biso   1.000  H
  H74      1.0000 0.24194  0.12470  0.83585  Biso   1.000  H
  H75      1.0000 0.23571  0.05750  0.88827  Biso   1.000  H
  C61      1.0000 0.38987  0.33750  0.98810  Biso   1.000  C
  H76      1.0000 0.43632  0.33320  0.98500  Biso   1.000  H
  H77      1.0000 0.37469  0.39520  0.97320  Biso   1.000  H
  H78      1.0000 0.37652  0.33340  0.02820  Biso   1.000  H
  C62      1.0000 0.21202  0.36267  0.88540  Biso   1.000  C
  C63      1.0000 0.24381  0.32372  0.93402  Biso   1.000  C
  C64      1.0000 0.21688  0.36660  0.98214  Biso   1.000  C
  C65      1.0000 0.22930  0.35670  0.04584  Biso   1.000  C
  H79      1.0000 0.19107  0.37260  0.06764  Biso   1.000  H
  H80      1.0000 0.24184  0.29460  0.05418  Biso   1.000  H
  H81      1.0000 0.26471  0.39610  0.05664  Biso   1.000  H
  C66      1.0000 0.22347  0.34240  0.82237  Biso   1.000  C
  H82      1.0000 0.25688  0.29680  0.81832  Biso   1.000  H
  H83      1.0000 0.18386  0.32080  0.80496  Biso   1.000  H
  H84      1.0000 0.23614  0.39780  0.80271  Biso   1.000  H
  Co4      1.0000 0.60531  0.51963  0.63990  Biso   1.000  Co
  C67      1.0000 0.67200  0.55370  0.76080  Biso   1.000  C
  S7       1.0000 0.69000  0.57600  0.82880  Biso   1.000  S
  S8       1.0000 0.70710  0.53180  0.82790  Biso   1.000  S
  C68      1.0000 0.67950  0.53070  0.76190  Biso   1.000  C
  N28      1.0000 0.53345  0.61211  0.67280  Biso   1.000  N
  N29      1.0000 0.47175  0.58190  0.68120  Biso   1.000  N
  H85      1.0000 0.45415  0.53420  0.66188  Biso   1.000  H
  N30      1.0000 0.44980  0.90237  0.83098  Biso   1.000  N
  N31      1.0000 0.45894  0.83390  0.87102  Biso   1.000  N
  H86      1.0000 0.45674  0.84220  0.90987  Biso   1.000  H
  N32      1.0000 0.64881  0.62528  0.58917  Biso   1.000  N
  N33      1.0000 0.61054  0.68457  0.55928  Biso   1.000  N
  H87      1.0000 0.56879  0.67334  0.54994  Biso   1.000  H
  N34      1.0000 0.83145  0.92505  0.59731  Biso   1.000  N
  N35      1.0000 0.82745  0.92631  0.53820  Biso   1.000  N
  H88      1.0000 0.85159  0.96305  0.51525  Biso   1.000  H
  N36      1.0000 0.65919  0.53459  0.71401  Biso   1.000  N
  C69      1.0000 0.43984  0.63130  0.72160  Biso   1.000  C
  C70      1.0000 0.48165  0.69840  0.74029  Biso   1.000  C
  C71      1.0000 0.53965  0.68440  0.70870  Biso   1.000  C
  C72      1.0000 0.59943  0.74070  0.71150  Biso   1.000  C
  H89      1.0000 0.63270  0.71500  0.68710  Biso   1.000  H
  H90      1.0000 0.58920  0.80210  0.69940  Biso   1.000  H
  H91      1.0000 0.61373  0.74340  0.75130  Biso   1.000  H
  C73      1.0000 0.37130  0.60960  0.73930  Biso   1.000  C
  H92      1.0000 0.36330  0.54470  0.73840  Biso   1.000  H
  H93      1.0000 0.36450  0.63430  0.77760  Biso   1.000  H
  H94      1.0000 0.34270  0.64190  0.71330  Biso   1.000  H
  C74      1.0000 0.45733  0.86170  0.77909  Biso   1.000  C
  C75      1.0000 0.47031  0.76740  0.78618  Biso   1.000  C
  C76      1.0000 0.47158  0.75290  0.84553  Biso   1.000  C
  C77      1.0000 0.48570  0.66860  0.87990  Biso   1.000  C
  H95      1.0000 0.45740  0.61970  0.86780  Biso   1.000  H
  H96      1.0000 0.53030  0.65130  0.87410  Biso   1.000  H
  H97      1.0000 0.47960  0.68130  0.92060  Biso   1.000  H
  C78      1.0000 0.45310  0.91360  0.72347  Biso   1.000  C
  H98      1.0000 0.46350  0.97700  0.73010  Biso   1.000  H
  H99      1.0000 0.48280  0.88780  0.69560  Biso   1.000  H
  H100     1.0000 0.40990  0.90840  0.70794  Biso   1.000  H
  C79      1.0000 0.64212  0.76219  0.54516  Biso   1.000  C
  C80      1.0000 0.70458  0.75409  0.56712  Biso   1.000  C
  C81      1.0000 0.70661  0.66679  0.59369  Biso   1.000  C
  C82      1.0000 0.76294  0.62110  0.62257  Biso   1.000  C
  H101     1.0000 0.80263  0.65070  0.61107  Biso   1.000  H
  H102     1.0000 0.75806  0.62470  0.66415  Biso   1.000  H
  H103     1.0000 0.76429  0.55750  0.61173  Biso   1.000  H
  C83      1.0000 0.61013  0.83750  0.51190  Biso   1.000  C
  H104     1.0000 0.56368  0.83320  0.51500  Biso   1.000  H
  H105     1.0000 0.62531  0.89520  0.52680  Biso   1.000  H
  H106     1.0000 0.62348  0.83340  0.47180  Biso   1.000  H
  C84      1.0000 0.78798  0.86267  0.61460  Biso   1.000  C
  C85      1.0000 0.75619  0.82372  0.56598  Biso   1.000  C
  C86      1.0000 0.78312  0.86660  0.51786  Biso   1.000  C
  C87      1.0000 0.77070  0.85670  0.45416  Biso   1.000  C
  H107     1.0000 0.80893  0.87260  0.43236  Biso   1.000  H
  H108     1.0000 0.75816  0.79460  0.44582  Biso   1.000  H
  H109     1.0000 0.73529  0.89610  0.44336  Biso   1.000  H
  C88      1.0000 0.77653  0.84240  0.67763  Biso   1.000  C
  H110     1.0000 0.74312  0.79680  0.68168  Biso   1.000  H
  H111     1.0000 0.81614  0.82080  0.69504  Biso   1.000  H
  H112     1.0000 0.76386  0.89780  0.69729  Biso   1.000  H
  Co5      1.0000 0.60531  0.98037  0.13990  Biso   1.000  Co
  C89      1.0000 0.67200  0.94630  0.26080  Biso   1.000  C
  S9       1.0000 0.69000  0.92400  0.32880  Biso   1.000  S
  S10      1.0000 0.70710  0.96820  0.32790  Biso   1.000  S
  C90      1.0000 0.67950  0.96930  0.26190  Biso   1.000  C
  N37      1.0000 0.53345  0.88789  0.17280  Biso   1.000  N
  N38      1.0000 0.47175  0.91810  0.18120  Biso   1.000  N
  H113     1.0000 0.45415  0.96580  0.16188  Biso   1.000  H
  N39      1.0000 0.44980  0.59763  0.33098  Biso   1.000  N
  N40      1.0000 0.45894  0.66610  0.37102  Biso   1.000  N
  H114     1.0000 0.45674  0.65780  0.40987  Biso   1.000  H
  N41      1.0000 0.64881  0.87472  0.08917  Biso   1.000  N
  N42      1.0000 0.61054  0.81543  0.05928  Biso   1.000  N
  H115     1.0000 0.56879  0.82666  0.04994  Biso   1.000  H
  N43      1.0000 0.83145  0.57495  0.09731  Biso   1.000  N
  N44      1.0000 0.82745  0.57369  0.03820  Biso   1.000  N
  H116     1.0000 0.85159  0.53695  0.01525  Biso   1.000  H
  N45      1.0000 0.65919  0.96541  0.21401  Biso   1.000  N
  C91      1.0000 0.43984  0.86870  0.22160  Biso   1.000  C
  C92      1.0000 0.48165  0.80160  0.24029  Biso   1.000  C
  C93      1.0000 0.53965  0.81560  0.20870  Biso   1.000  C
  C94      1.0000 0.59943  0.75930  0.21150  Biso   1.000  C
  H117     1.0000 0.63270  0.78500  0.18710  Biso   1.000  H
  H118     1.0000 0.58920  0.69790  0.19940  Biso   1.000  H
  H119     1.0000 0.61373  0.75660  0.25130  Biso   1.000  H
  C95      1.0000 0.37130  0.89040  0.23930  Biso   1.000  C
  H120     1.0000 0.36330  0.95530  0.23840  Biso   1.000  H
  H121     1.0000 0.36450  0.86570  0.27760  Biso   1.000  H
  H122     1.0000 0.34270  0.85810  0.21330  Biso   1.000  H
  C96      1.0000 0.45733  0.63830  0.27909  Biso   1.000  C
  C97      1.0000 0.47031  0.73260  0.28618  Biso   1.000  C
  C98      1.0000 0.47158  0.74710  0.34553  Biso   1.000  C
  C99      1.0000 0.48570  0.83140  0.37990  Biso   1.000  C
  H123     1.0000 0.45740  0.88030  0.36780  Biso   1.000  H
  H124     1.0000 0.53030  0.84870  0.37410  Biso   1.000  H
  H125     1.0000 0.47960  0.81870  0.42060  Biso   1.000  H
  C100     1.0000 0.45310  0.58640  0.22347  Biso   1.000  C
  H126     1.0000 0.46350  0.52300  0.23010  Biso   1.000  H
  H127     1.0000 0.48280  0.61220  0.19560  Biso   1.000  H
  H128     1.0000 0.40990  0.59160  0.20794  Biso   1.000  H
  C101     1.0000 0.64212  0.73781  0.04516  Biso   1.000  C
  C102     1.0000 0.70458  0.74591  0.06712  Biso   1.000  C
  C103     1.0000 0.70661  0.83321  0.09369  Biso   1.000  C
  C104     1.0000 0.76294  0.87890  0.12257  Biso   1.000  C
  H129     1.0000 0.80263  0.84930  0.11107  Biso   1.000  H
  H130     1.0000 0.75806  0.87530  0.16415  Biso   1.000  H
  H131     1.0000 0.76429  0.94250  0.11173  Biso   1.000  H
  C105     1.0000 0.61013  0.66250  0.01190  Biso   1.000  C
  H132     1.0000 0.56368  0.66680  0.01500  Biso   1.000  H
  H133     1.0000 0.62531  0.60480  0.02680  Biso   1.000  H
  H134     1.0000 0.62348  0.66660  0.97180  Biso   1.000  H
  C106     1.0000 0.78798  0.63733  0.11460  Biso   1.000  C
  C107     1.0000 0.75619  0.67628  0.06598  Biso   1.000  C
  C108     1.0000 0.78312  0.63340  0.01786  Biso   1.000  C
  C109     1.0000 0.77070  0.64330  0.95416  Biso   1.000  C
  H135     1.0000 0.80893  0.62740  0.93236  Biso   1.000  H
  H136     1.0000 0.75816  0.70540  0.94582  Biso   1.000  H
  H137     1.0000 0.73529  0.60390  0.94336  Biso   1.000  H
  C110     1.0000 0.77653  0.65760  0.17763  Biso   1.000  C
  H138     1.0000 0.74312  0.70320  0.18168  Biso   1.000  H
  H139     1.0000 0.81614  0.67920  0.19504  Biso   1.000  H
  H140     1.0000 0.76386  0.60220  0.19729  Biso   1.000  H
  Co6      1.0000 0.39469  0.48037  0.36010  Biso   1.000  Co
  C111     1.0000 0.32800  0.44630  0.23920  Biso   1.000  C
  S11      1.0000 0.31000  0.42400  0.17120  Biso   1.000  S
  S12      1.0000 0.29290  0.46820  0.17210  Biso   1.000  S
  C112     1.0000 0.32050  0.46930  0.23810  Biso   1.000  C
  N46      1.0000 0.46655  0.38789  0.32720  Biso   1.000  N
  N47      1.0000 0.52825  0.41810  0.31880  Biso   1.000  N
  H141     1.0000 0.54585  0.46580  0.33812  Biso   1.000  H
  N48      1.0000 0.55020  0.09763  0.16902  Biso   1.000  N
  N49      1.0000 0.54106  0.16610  0.12898  Biso   1.000  N
  H142     1.0000 0.54326  0.15780  0.09013  Biso   1.000  H
  N50      1.0000 0.35119  0.37472  0.41083  Biso   1.000  N
  N51      1.0000 0.38946  0.31543  0.44072  Biso   1.000  N
  H143     1.0000 0.43121  0.32666  0.45006  Biso   1.000  H
  N52      1.0000 0.16855  0.07495  0.40269  Biso   1.000  N
  N53      1.0000 0.17255  0.07369  0.46180  Biso   1.000  N
  H144     1.0000 0.14841  0.03695  0.48475  Biso   1.000  H
  N54      1.0000 0.34081  0.46541  0.28599  Biso   1.000  N
  C113     1.0000 0.56016  0.36870  0.27840  Biso   1.000  C
  C114     1.0000 0.51835  0.30160  0.25971  Biso   1.000  C
  C115     1.0000 0.46035  0.31560  0.29130  Biso   1.000  C
  C116     1.0000 0.40057  0.25930  0.28850  Biso   1.000  C
  H145     1.0000 0.36730  0.28500  0.31290  Biso   1.000  H
  H146     1.0000 0.41080  0.19790  0.30060  Biso   1.000  H
  H147     1.0000 0.38627  0.25660  0.24870  Biso   1.000  H
  C117     1.0000 0.62870  0.39040  0.26070  Biso   1.000  C
  H148     1.0000 0.63670  0.45530  0.26160  Biso   1.000  H
  H149     1.0000 0.63550  0.36570  0.22240  Biso   1.000  H
  H150     1.0000 0.65730  0.35810  0.28670  Biso   1.000  H
  C118     1.0000 0.54267  0.13830  0.22091  Biso   1.000  C
  C119     1.0000 0.52969  0.23260  0.21382  Biso   1.000  C
  C120     1.0000 0.52842  0.24710  0.15447  Biso   1.000  C
  C121     1.0000 0.51430  0.33140  0.12010  Biso   1.000  C
  H151     1.0000 0.54260  0.38030  0.13220  Biso   1.000  H
  H152     1.0000 0.46970  0.34870  0.12590  Biso   1.000  H
  H153     1.0000 0.52040  0.31870  0.07940  Biso   1.000  H
  C122     1.0000 0.54690  0.08640  0.27653  Biso   1.000  C
  H154     1.0000 0.53650  0.02300  0.26990  Biso   1.000  H
  H155     1.0000 0.51720  0.11220  0.30440  Biso   1.000  H
  H156     1.0000 0.59010  0.09160  0.29206  Biso   1.000  H
  C123     1.0000 0.35788  0.23781  0.45484  Biso   1.000  C
  C124     1.0000 0.29542  0.24591  0.43288  Biso   1.000  C
  C125     1.0000 0.29339  0.33321  0.40631  Biso   1.000  C
  C126     1.0000 0.23706  0.37890  0.37743  Biso   1.000  C
  H157     1.0000 0.19737  0.34930  0.38893  Biso   1.000  H
  H158     1.0000 0.24194  0.37530  0.33585  Biso   1.000  H
  H159     1.0000 0.23571  0.44250  0.38827  Biso   1.000  H
  C127     1.0000 0.38987  0.16250  0.48810  Biso   1.000  C
  H160     1.0000 0.43632  0.16680  0.48500  Biso   1.000  H
  H161     1.0000 0.37469  0.10480  0.47320  Biso   1.000  H
  H162     1.0000 0.37652  0.16660  0.52820  Biso   1.000  H
  C128     1.0000 0.21202  0.13733  0.38540  Biso   1.000  C
  C129     1.0000 0.24381  0.17628  0.43402  Biso   1.000  C
  C130     1.0000 0.21688  0.13340  0.48214  Biso   1.000  C
  C131     1.0000 0.22930  0.14330  0.54584  Biso   1.000  C
  H163     1.0000 0.19107  0.12740  0.56764  Biso   1.000  H
  H164     1.0000 0.24184  0.20540  0.55418  Biso   1.000  H
  H165     1.0000 0.26471  0.10390  0.55664  Biso   1.000  H
  C132     1.0000 0.22347  0.15760  0.32237  Biso   1.000  C
  H166     1.0000 0.25688  0.20320  0.31832  Biso   1.000  H
  H167     1.0000 0.18386  0.17920  0.30496  Biso   1.000  H
  H168     1.0000 0.23614  0.10220  0.30271  Biso   1.000  H
  Co7      1.0000 0.10531  0.98037  0.36010  Biso   1.000  Co
  C133     1.0000 0.17200  0.94630  0.23920  Biso   1.000  C
  S13      1.0000 0.19000  0.92400  0.17120  Biso   1.000  S
  S14      1.0000 0.20710  0.96820  0.17210  Biso   1.000  S
  C134     1.0000 0.17950  0.96930  0.23810  Biso   1.000  C
  N55      1.0000 0.03345  0.88789  0.32720  Biso   1.000  N
  N56      1.0000 0.97175  0.91810  0.31880  Biso   1.000  N
  H169     1.0000 0.95415  0.96580  0.33812  Biso   1.000  H
  N57      1.0000 0.94980  0.59763  0.16902  Biso   1.000  N
  N58      1.0000 0.95894  0.66610  0.12898  Biso   1.000  N
  H170     1.0000 0.95674  0.65780  0.09013  Biso   1.000  H
  N59      1.0000 0.14881  0.87472  0.41083  Biso   1.000  N
  N60      1.0000 0.11054  0.81543  0.44072  Biso   1.000  N
  H171     1.0000 0.06879  0.82666  0.45006  Biso   1.000  H
  N61      1.0000 0.33145  0.57495  0.40269  Biso   1.000  N
  N62      1.0000 0.32745  0.57369  0.46180  Biso   1.000  N
  H172     1.0000 0.35159  0.53695  0.48475  Biso   1.000  H
  N63      1.0000 0.15919  0.96541  0.28599  Biso   1.000  N
  C135     1.0000 0.93984  0.86870  0.27840  Biso   1.000  C
  C136     1.0000 0.98165  0.80160  0.25971  Biso   1.000  C
  C137     1.0000 0.03965  0.81560  0.29130  Biso   1.000  C
  C138     1.0000 0.09943  0.75930  0.28850  Biso   1.000  C
  H173     1.0000 0.13270  0.78500  0.31290  Biso   1.000  H
  H174     1.0000 0.08920  0.69790  0.30060  Biso   1.000  H
  H175     1.0000 0.11373  0.75660  0.24870  Biso   1.000  H
  C139     1.0000 0.87130  0.89040  0.26070  Biso   1.000  C
  H176     1.0000 0.86330  0.95530  0.26160  Biso   1.000  H
  H177     1.0000 0.86450  0.86570  0.22240  Biso   1.000  H
  H178     1.0000 0.84270  0.85810  0.28670  Biso   1.000  H
  C140     1.0000 0.95733  0.63830  0.22091  Biso   1.000  C
  C141     1.0000 0.97031  0.73260  0.21382  Biso   1.000  C
  C142     1.0000 0.97158  0.74710  0.15447  Biso   1.000  C
  C143     1.0000 0.98570  0.83140  0.12010  Biso   1.000  C
  H179     1.0000 0.95740  0.88030  0.13220  Biso   1.000  H
  H180     1.0000 0.03030  0.84870  0.12590  Biso   1.000  H
  H181     1.0000 0.97960  0.81870  0.07940  Biso   1.000  H
  C144     1.0000 0.95310  0.58640  0.27653  Biso   1.000  C
  H182     1.0000 0.96350  0.52300  0.26990  Biso   1.000  H
  H183     1.0000 0.98280  0.61220  0.30440  Biso   1.000  H
  H184     1.0000 0.90990  0.59160  0.29206  Biso   1.000  H
  C145     1.0000 0.14212  0.73781  0.45484  Biso   1.000  C
  C146     1.0000 0.20458  0.74591  0.43288  Biso   1.000  C
  C147     1.0000 0.20661  0.83321  0.40631  Biso   1.000  C
  C148     1.0000 0.26294  0.87890  0.37743  Biso   1.000  C
  H185     1.0000 0.30263  0.84930  0.38893  Biso   1.000  H
  H186     1.0000 0.25806  0.87530  0.33585  Biso   1.000  H
  H187     1.0000 0.26429  0.94250  0.38827  Biso   1.000  H
  C149     1.0000 0.11013  0.66250  0.48810  Biso   1.000  C
  H188     1.0000 0.06368  0.66680  0.48500  Biso   1.000  H
  H189     1.0000 0.12531  0.60480  0.47320  Biso   1.000  H
  H190     1.0000 0.12348  0.66660  0.52820  Biso   1.000  H
  C150     1.0000 0.28798  0.63733  0.38540  Biso   1.000  C
  C151     1.0000 0.25619  0.67628  0.43402  Biso   1.000  C
  C152     1.0000 0.28312  0.63340  0.48214  Biso   1.000  C
  C153     1.0000 0.27070  0.64330  0.54584  Biso   1.000  C
  H191     1.0000 0.30893  0.62740  0.56764  Biso   1.000  H
  H192     1.0000 0.25816  0.70540  0.55418  Biso   1.000  H
  H193     1.0000 0.23529  0.60390  0.55664  Biso   1.000  H
  C154     1.0000 0.27653  0.65760  0.32237  Biso   1.000  C
  H194     1.0000 0.24312  0.70320  0.31832  Biso   1.000  H
  H195     1.0000 0.31614  0.67920  0.30496  Biso   1.000  H
  H196     1.0000 0.26386  0.60220  0.30271  Biso   1.000  H
  Co8      1.0000 0.89469  0.48037  0.13990  Biso   1.000  Co
  C155     1.0000 0.82800  0.44630  0.26080  Biso   1.000  C
  S15      1.0000 0.81000  0.42400  0.32880  Biso   1.000  S
  S16      1.0000 0.79290  0.46820  0.32790  Biso   1.000  S
  C156     1.0000 0.82050  0.46930  0.26190  Biso   1.000  C
  N64      1.0000 0.96655  0.38789  0.17280  Biso   1.000  N
  N65      1.0000 0.02825  0.41810  0.18120  Biso   1.000  N
  H197     1.0000 0.04585  0.46580  0.16188  Biso   1.000  H
  N66      1.0000 0.05020  0.09763  0.33098  Biso   1.000  N
  N67      1.0000 0.04106  0.16610  0.37102  Biso   1.000  N
  H198     1.0000 0.04326  0.15780  0.40987  Biso   1.000  H
  N68      1.0000 0.85119  0.37472  0.08917  Biso   1.000  N
  N69      1.0000 0.88946  0.31543  0.05928  Biso   1.000  N
  H199     1.0000 0.93121  0.32666  0.04994  Biso   1.000  H
  N70      1.0000 0.66855  0.07495  0.09731  Biso   1.000  N
  N71      1.0000 0.67255  0.07369  0.03820  Biso   1.000  N
  H200     1.0000 0.64841  0.03695  0.01525  Biso   1.000  H
  N72      1.0000 0.84081  0.46541  0.21401  Biso   1.000  N
  C157     1.0000 0.06016  0.36870  0.22160  Biso   1.000  C
  C158     1.0000 0.01835  0.30160  0.24029  Biso   1.000  C
  C159     1.0000 0.96035  0.31560  0.20870  Biso   1.000  C
  C160     1.0000 0.90057  0.25930  0.21150  Biso   1.000  C
  H201     1.0000 0.86730  0.28500  0.18710  Biso   1.000  H
  H202     1.0000 0.91080  0.19790  0.19940  Biso   1.000  H
  H203     1.0000 0.88627  0.25660  0.25130  Biso   1.000  H
  C161     1.0000 0.12870  0.39040  0.23930  Biso   1.000  C
  H204     1.0000 0.13670  0.45530  0.23840  Biso   1.000  H
  H205     1.0000 0.13550  0.36570  0.27760  Biso   1.000  H
  H206     1.0000 0.15730  0.35810  0.21330  Biso   1.000  H
  C162     1.0000 0.04267  0.13830  0.27909  Biso   1.000  C
  C163     1.0000 0.02969  0.23260  0.28618  Biso   1.000  C
  C164     1.0000 0.02842  0.24710  0.34553  Biso   1.000  C
  C165     1.0000 0.01430  0.33140  0.37990  Biso   1.000  C
  H207     1.0000 0.04260  0.38030  0.36780  Biso   1.000  H
  H208     1.0000 0.96970  0.34870  0.37410  Biso   1.000  H
  H209     1.0000 0.02040  0.31870  0.42060  Biso   1.000  H
  C166     1.0000 0.04690  0.08640  0.22347  Biso   1.000  C
  H210     1.0000 0.03650  0.02300  0.23010  Biso   1.000  H
  H211     1.0000 0.01720  0.11220  0.19560  Biso   1.000  H
  H212     1.0000 0.09010  0.09160  0.20794  Biso   1.000  H
  C167     1.0000 0.85788  0.23781  0.04516  Biso   1.000  C
  C168     1.0000 0.79542  0.24591  0.06712  Biso   1.000  C
  C169     1.0000 0.79339  0.33321  0.09369  Biso   1.000  C
  C170     1.0000 0.73706  0.37890  0.12257  Biso   1.000  C
  H213     1.0000 0.69737  0.34930  0.11107  Biso   1.000  H
  H214     1.0000 0.74194  0.37530  0.16415  Biso   1.000  H
  H215     1.0000 0.73571  0.44250  0.11173  Biso   1.000  H
  C171     1.0000 0.88987  0.16250  0.01190  Biso   1.000  C
  H216     1.0000 0.93632  0.16680  0.01500  Biso   1.000  H
  H217     1.0000 0.87469  0.10480  0.02680  Biso   1.000  H
  H218     1.0000 0.87652  0.16660  0.97180  Biso   1.000  H
  C172     1.0000 0.71202  0.13733  0.11460  Biso   1.000  C
  C173     1.0000 0.74381  0.17628  0.06598  Biso   1.000  C
  C174     1.0000 0.71688  0.13340  0.01786  Biso   1.000  C
  C175     1.0000 0.72930  0.14330  0.95416  Biso   1.000  C
  H219     1.0000 0.69107  0.12740  0.93236  Biso   1.000  H
  H220     1.0000 0.74184  0.20540  0.94582  Biso   1.000  H
  H221     1.0000 0.76471  0.10390  0.94336  Biso   1.000  H
  C176     1.0000 0.72347  0.15760  0.17763  Biso   1.000  C
  H222     1.0000 0.75688  0.20320  0.18168  Biso   1.000  H
  H223     1.0000 0.68386  0.17920  0.19504  Biso   1.000  H
  H224     1.0000 0.73614  0.10220  0.19729  Biso   1.000  H
