data_image0
_cell_length_a       7.9687
_cell_length_b       7.9687
_cell_length_c       17.7213
_cell_angle_alpha    90
_cell_angle_beta     90
_cell_angle_gamma    90

_symmetry_space_group_name_H-M    "P 1"
_symmetry_int_tables_number       1

loop_
  _symmetry_equiv_pos_as_xyz
  'x, y, z'

loop_
  _atom_site_label
  _atom_site_occupancy
  _atom_site_fract_x
  _atom_site_fract_y
  _atom_site_fract_z
  _atom_site_thermal_displace_type
  _atom_site_B_iso_or_equiv
  _atom_site_type_symbol
  C1       1.0000 0.06961  0.90896  0.96007  Biso   1.000  C
  H1       1.0000 0.16640  0.89560  0.93140  Biso   1.000  H
  C2       1.0000 0.95138  0.78191  0.95977  Biso   1.000  C
  H2       1.0000 0.97090  0.68350  0.93300  Biso   1.000  H
  C3       1.0000 0.50460  0.71388  0.98831  Biso   1.000  C
  H3       1.0000 0.47290  0.82500  0.98090  Biso   1.000  H
  C4       1.0000 0.38630  0.58681  0.98796  Biso   1.000  C
  H4       1.0000 0.27470  0.61450  0.97900  Biso   1.000  H
  C5       1.0000 0.90896  0.06961  0.03993  Biso   1.000  C
  H5       1.0000 0.89560  0.16640  0.06860  Biso   1.000  H
  C6       1.0000 0.78191  0.95138  0.04023  Biso   1.000  C
  H6       1.0000 0.68350  0.97090  0.06700  Biso   1.000  H
  C7       1.0000 0.71388  0.50460  0.01169  Biso   1.000  C
  H7       1.0000 0.82500  0.47290  0.01910  Biso   1.000  H
  C8       1.0000 0.58681  0.38630  0.01204  Biso   1.000  C
  H8       1.0000 0.61450  0.27470  0.02100  Biso   1.000  H
  Zn1      1.0000 0.23747  0.23747  0.00000  Biso   1.000  Zn
  N1       1.0000 0.05054  0.05054  0.00000  Biso   1.000  N
  N2       1.0000 0.42562  0.42562  0.00000  Biso   1.000  N
  C9       1.0000 0.80292  0.80292  0.00000  Biso   1.000  C
  C10      1.0000 0.67155  0.67155  0.00000  Biso   1.000  C
  C11      1.0000 0.93039  0.09104  0.46007  Biso   1.000  C
  H9       1.0000 0.83360  0.10440  0.43140  Biso   1.000  H
  C12      1.0000 0.04862  0.21809  0.45977  Biso   1.000  C
  H10      1.0000 0.02910  0.31650  0.43300  Biso   1.000  H
  C13      1.0000 0.49540  0.28612  0.48831  Biso   1.000  C
  H11      1.0000 0.52710  0.17500  0.48090  Biso   1.000  H
  C14      1.0000 0.61370  0.41319  0.48796  Biso   1.000  C
  H12      1.0000 0.72530  0.38550  0.47900  Biso   1.000  H
  C15      1.0000 0.09104  0.93039  0.53993  Biso   1.000  C
  H13      1.0000 0.10440  0.83360  0.56860  Biso   1.000  H
  C16      1.0000 0.21809  0.04862  0.54023  Biso   1.000  C
  H14      1.0000 0.31650  0.02910  0.56700  Biso   1.000  H
  C17      1.0000 0.28612  0.49540  0.51169  Biso   1.000  C
  H15      1.0000 0.17500  0.52710  0.51910  Biso   1.000  H
  C18      1.0000 0.41319  0.61370  0.51204  Biso   1.000  C
  H16      1.0000 0.38550  0.72530  0.52100  Biso   1.000  H
  Zn2      1.0000 0.76253  0.76253  0.50000  Biso   1.000  Zn
  N3       1.0000 0.94946  0.94946  0.50000  Biso   1.000  N
  N4       1.0000 0.57438  0.57438  0.50000  Biso   1.000  N
  C19      1.0000 0.19708  0.19708  0.50000  Biso   1.000  C
  C20      1.0000 0.32845  0.32845  0.50000  Biso   1.000  C
  C21      1.0000 0.59104  0.56961  0.21007  Biso   1.000  C
  H17      1.0000 0.60440  0.66640  0.18140  Biso   1.000  H
  C22      1.0000 0.71809  0.45138  0.20977  Biso   1.000  C
  H18      1.0000 0.81650  0.47090  0.18300  Biso   1.000  H
  C23      1.0000 0.78612  0.00460  0.23831  Biso   1.000  C
  H19      1.0000 0.67500  0.97290  0.23090  Biso   1.000  H
  C24      1.0000 0.91319  0.88630  0.23796  Biso   1.000  C
  H20      1.0000 0.88550  0.77470  0.22900  Biso   1.000  H
  C25      1.0000 0.43039  0.40896  0.28993  Biso   1.000  C
  H21      1.0000 0.33360  0.39560  0.31860  Biso   1.000  H
  C26      1.0000 0.54862  0.28191  0.29023  Biso   1.000  C
  H22      1.0000 0.52910  0.18350  0.31700  Biso   1.000  H
  C27      1.0000 0.99540  0.21388  0.26169  Biso   1.000  C
  H23      1.0000 0.02710  0.32500  0.26910  Biso   1.000  H
  C28      1.0000 0.11370  0.08681  0.26204  Biso   1.000  C
  H24      1.0000 0.22530  0.11450  0.27100  Biso   1.000  H
  Zn3      1.0000 0.26253  0.73747  0.25000  Biso   1.000  Zn
  N5       1.0000 0.44946  0.55054  0.25000  Biso   1.000  N
  N6       1.0000 0.07438  0.92562  0.25000  Biso   1.000  N
  C29      1.0000 0.69708  0.30292  0.25000  Biso   1.000  C
  C30      1.0000 0.82845  0.17155  0.25000  Biso   1.000  C
  C31      1.0000 0.40896  0.43039  0.71007  Biso   1.000  C
  H25      1.0000 0.39560  0.33360  0.68140  Biso   1.000  H
  C32      1.0000 0.28191  0.54862  0.70977  Biso   1.000  C
  H26      1.0000 0.18350  0.52910  0.68300  Biso   1.000  H
  C33      1.0000 0.21388  0.99540  0.73831  Biso   1.000  C
  H27      1.0000 0.32500  0.02710  0.73090  Biso   1.000  H
  C34      1.0000 0.08681  0.11370  0.73796  Biso   1.000  C
  H28      1.0000 0.11450  0.22530  0.72900  Biso   1.000  H
  C35      1.0000 0.56961  0.59104  0.78993  Biso   1.000  C
  H29      1.0000 0.66640  0.60440  0.81860  Biso   1.000  H
  C36      1.0000 0.45138  0.71809  0.79023  Biso   1.000  C
  H30      1.0000 0.47090  0.81650  0.81700  Biso   1.000  H
  C37      1.0000 0.00460  0.78612  0.76169  Biso   1.000  C
  H31      1.0000 0.97290  0.67500  0.76910  Biso   1.000  H
  C38      1.0000 0.88630  0.91319  0.76204  Biso   1.000  C
  H32      1.0000 0.77470  0.88550  0.77100  Biso   1.000  H
  Zn4      1.0000 0.73747  0.26253  0.75000  Biso   1.000  Zn
  N7       1.0000 0.55054  0.44946  0.75000  Biso   1.000  N
  N8       1.0000 0.92562  0.07438  0.75000  Biso   1.000  N
  C39      1.0000 0.30292  0.69708  0.75000  Biso   1.000  C
  C40      1.0000 0.17155  0.82845  0.75000  Biso   1.000  C
