data_image0
_cell_length_a       7.976
_cell_length_b       7.976
_cell_length_c       17.753
_cell_angle_alpha    90
_cell_angle_beta     90
_cell_angle_gamma    90

_symmetry_space_group_name_H-M    "P 1"
_symmetry_int_tables_number       1

loop_
  _symmetry_equiv_pos_as_xyz
  'x, y, z'

loop_
  _atom_site_label
  _atom_site_occupancy
  _atom_site_fract_x
  _atom_site_fract_y
  _atom_site_fract_z
  _atom_site_thermal_displace_type
  _atom_site_B_iso_or_equiv
  _atom_site_type_symbol
  C1       1.0000 0.11290  0.91330  0.48782  Biso   1.000  C
  H1       1.0000 0.22440  0.88540  0.47890  Biso   1.000  H
  C2       1.0000 0.99510  0.78650  0.48788  Biso   1.000  C
  H2       1.0000 0.02680  0.67560  0.48000  Biso   1.000  H
  C3       1.0000 0.71810  0.54810  0.53984  Biso   1.000  C
  H3       1.0000 0.81690  0.52850  0.56620  Biso   1.000  H
  C4       1.0000 0.59120  0.43040  0.53974  Biso   1.000  C
  H4       1.0000 0.60460  0.33380  0.56840  Biso   1.000  H
  C5       1.0000 0.91330  0.11290  0.51218  Biso   1.000  C
  H5       1.0000 0.88540  0.22440  0.52110  Biso   1.000  H
  C6       1.0000 0.78650  0.99510  0.51212  Biso   1.000  C
  H6       1.0000 0.67560  0.02680  0.52000  Biso   1.000  H
  C7       1.0000 0.54810  0.71810  0.46016  Biso   1.000  C
  H7       1.0000 0.52850  0.81690  0.43380  Biso   1.000  H
  C8       1.0000 0.43040  0.59120  0.46026  Biso   1.000  C
  H8       1.0000 0.33380  0.60460  0.43160  Biso   1.000  H
  Zn1      1.0000 0.26223  0.26223  0.50000  Biso   1.000  Zn
  N1       1.0000 0.07459  0.07459  0.50000  Biso   1.000  N
  N2       1.0000 0.44946  0.44946  0.50000  Biso   1.000  N
  C9       1.0000 0.82830  0.82830  0.50000  Biso   1.000  C
  C10      1.0000 0.69600  0.69600  0.50000  Biso   1.000  C
  C11      1.0000 0.41330  0.38710  0.23782  Biso   1.000  C
  H9       1.0000 0.38540  0.27560  0.22890  Biso   1.000  H
  C12      1.0000 0.28650  0.50490  0.23788  Biso   1.000  C
  H10      1.0000 0.17560  0.47320  0.23000  Biso   1.000  H
  C13      1.0000 0.04810  0.78190  0.28984  Biso   1.000  C
  H11      1.0000 0.02850  0.68310  0.31620  Biso   1.000  H
  C14      1.0000 0.93040  0.90880  0.28974  Biso   1.000  C
  H12      1.0000 0.83380  0.89540  0.31840  Biso   1.000  H
  C15      1.0000 0.61290  0.58670  0.26218  Biso   1.000  C
  H13      1.0000 0.72440  0.61460  0.27110  Biso   1.000  H
  C16      1.0000 0.49510  0.71350  0.26212  Biso   1.000  C
  H14      1.0000 0.52680  0.82440  0.27000  Biso   1.000  H
  C17      1.0000 0.21810  0.95190  0.21016  Biso   1.000  C
  H15      1.0000 0.31690  0.97150  0.18380  Biso   1.000  H
  C18      1.0000 0.09120  0.06960  0.21026  Biso   1.000  C
  H16      1.0000 0.10460  0.16620  0.18160  Biso   1.000  H
  Zn2      1.0000 0.76223  0.23777  0.25000  Biso   1.000  Zn
  N3       1.0000 0.57459  0.42541  0.25000  Biso   1.000  N
  N4       1.0000 0.94946  0.05054  0.25000  Biso   1.000  N
  C19      1.0000 0.32830  0.67170  0.25000  Biso   1.000  C
  C20      1.0000 0.19600  0.80400  0.25000  Biso   1.000  C
  C21      1.0000 0.88710  0.08670  0.98782  Biso   1.000  C
  H17      1.0000 0.77560  0.11460  0.97890  Biso   1.000  H
  C22      1.0000 0.00490  0.21350  0.98788  Biso   1.000  C
  H18      1.0000 0.97320  0.32440  0.98000  Biso   1.000  H
  C23      1.0000 0.28190  0.45190  0.03984  Biso   1.000  C
  H19      1.0000 0.18310  0.47150  0.06620  Biso   1.000  H
  C24      1.0000 0.40880  0.56960  0.03974  Biso   1.000  C
  H20      1.0000 0.39540  0.66620  0.06840  Biso   1.000  H
  C25      1.0000 0.08670  0.88710  0.01218  Biso   1.000  C
  H21      1.0000 0.11460  0.77560  0.02110  Biso   1.000  H
  C26      1.0000 0.21350  0.00490  0.01212  Biso   1.000  C
  H22      1.0000 0.32440  0.97320  0.02000  Biso   1.000  H
  C27      1.0000 0.45190  0.28190  0.96016  Biso   1.000  C
  H23      1.0000 0.47150  0.18310  0.93380  Biso   1.000  H
  C28      1.0000 0.56960  0.40880  0.96026  Biso   1.000  C
  H24      1.0000 0.66620  0.39540  0.93160  Biso   1.000  H
  Zn3      1.0000 0.73777  0.73777  0.00000  Biso   1.000  Zn
  N5       1.0000 0.92541  0.92541  0.00000  Biso   1.000  N
  N6       1.0000 0.55054  0.55054  0.00000  Biso   1.000  N
  C29      1.0000 0.17170  0.17170  0.00000  Biso   1.000  C
  C30      1.0000 0.30400  0.30400  0.00000  Biso   1.000  C
  C31      1.0000 0.58670  0.61290  0.73782  Biso   1.000  C
  H25      1.0000 0.61460  0.72440  0.72890  Biso   1.000  H
  C32      1.0000 0.71350  0.49510  0.73788  Biso   1.000  C
  H26      1.0000 0.82440  0.52680  0.73000  Biso   1.000  H
  C33      1.0000 0.95190  0.21810  0.78984  Biso   1.000  C
  H27      1.0000 0.97150  0.31690  0.81620  Biso   1.000  H
  C34      1.0000 0.06960  0.09120  0.78974  Biso   1.000  C
  H28      1.0000 0.16620  0.10460  0.81840  Biso   1.000  H
  C35      1.0000 0.38710  0.41330  0.76218  Biso   1.000  C
  H29      1.0000 0.27560  0.38540  0.77110  Biso   1.000  H
  C36      1.0000 0.50490  0.28650  0.76212  Biso   1.000  C
  H30      1.0000 0.47320  0.17560  0.77000  Biso   1.000  H
  C37      1.0000 0.78190  0.04810  0.71016  Biso   1.000  C
  H31      1.0000 0.68310  0.02850  0.68380  Biso   1.000  H
  C38      1.0000 0.90880  0.93040  0.71026  Biso   1.000  C
  H32      1.0000 0.89540  0.83380  0.68160  Biso   1.000  H
  Zn4      1.0000 0.23777  0.76223  0.75000  Biso   1.000  Zn
  N7       1.0000 0.42541  0.57459  0.75000  Biso   1.000  N
  N8       1.0000 0.05054  0.94946  0.75000  Biso   1.000  N
  C39      1.0000 0.67170  0.32830  0.75000  Biso   1.000  C
  C40      1.0000 0.80400  0.19600  0.75000  Biso   1.000  C
