data_image0
_cell_length_a       17.919
_cell_length_b       20.2097
_cell_length_c       11.1297
_cell_angle_alpha    90
_cell_angle_beta     98.077
_cell_angle_gamma    90

_symmetry_space_group_name_H-M    "P 1"
_symmetry_int_tables_number       1

loop_
  _symmetry_equiv_pos_as_xyz
  'x, y, z'

loop_
  _atom_site_label
  _atom_site_occupancy
  _atom_site_fract_x
  _atom_site_fract_y
  _atom_site_fract_z
  _atom_site_thermal_displace_type
  _atom_site_B_iso_or_equiv
  _atom_site_type_symbol
  O1       1.0000 0.03280  0.10020  0.09460  Biso   1.000  O
  F1       1.0000 0.77070  0.92850  0.11530  Biso   1.000  F
  F2       1.0000 0.75270  0.97040  0.10040  Biso   1.000  F
  F3       1.0000 0.81240  0.96810  0.26190  Biso   1.000  F
  F4       1.0000 0.07240  0.22690  0.01800  Biso   1.000  F
  F5       1.0000 0.00280  0.22980  0.89760  Biso   1.000  F
  F6       1.0000 0.09080  0.21140  0.97100  Biso   1.000  F
  F7       1.0000 0.96500  0.23030  0.90730  Biso   1.000  F
  C1       1.0000 0.10920  0.03450  0.30600  Biso   1.000  C
  H1       1.0000 0.06610  0.05800  0.31730  Biso   1.000  H
  C2       1.0000 0.17730  0.06820  0.28910  Biso   1.000  C
  C3       1.0000 0.18540  0.13480  0.24140  Biso   1.000  C
  H2       1.0000 0.14740  0.16590  0.24420  Biso   1.000  H
  C4       1.0000 0.25010  0.15180  0.19140  Biso   1.000  C
  C5       1.0000 0.31100  0.10380  0.18590  Biso   1.000  C
  C6       1.0000 0.30440  0.04520  0.24680  Biso   1.000  C
  C7       1.0000 0.23800  0.02790  0.29620  Biso   1.000  C
  C8       1.0000 0.39880  0.04010  0.07100  Biso   1.000  C
  H3       1.0000 0.42830  0.03530  0.00950  Biso   1.000  H
  C9       1.0000 0.36620  0.10420  0.10110  Biso   1.000  C
  H4       1.0000 0.38030  0.14350  0.06700  Biso   1.000  H
  Br1      1.0000 0.24900  0.22670  0.07060  Biso   1.000  Br
  C10      1.0000 0.10110  0.03420  0.32000  Biso   1.000  C
  H5       1.0000 0.05690  0.05560  0.33250  Biso   1.000  H
  C11      1.0000 0.16450  0.07460  0.30160  Biso   1.000  C
  C12      1.0000 0.16570  0.14320  0.25980  Biso   1.000  C
  H6       1.0000 0.12520  0.17090  0.26810  Biso   1.000  H
  C13      1.0000 0.22670  0.16780  0.20760  Biso   1.000  C
  H7       1.0000 0.22520  0.21130  0.18010  Biso   1.000  H
  C14      1.0000 0.29340  0.12670  0.19480  Biso   1.000  C
  C15      1.0000 0.29530  0.06670  0.25290  Biso   1.000  C
  C16      1.0000 0.23080  0.04270  0.30260  Biso   1.000  C
  C17      1.0000 0.33560  0.02380  0.22000  Biso   1.000  C
  C18      1.0000 0.38250  0.03050  0.13200  Biso   1.000  C
  C19      1.0000 0.39190  0.07480  0.08090  Biso   1.000  C
  H8       1.0000 0.42410  0.07590  0.02220  Biso   1.000  H
  C20      1.0000 0.34880  0.13330  0.11310  Biso   1.000  C
  H9       1.0000 0.35750  0.17450  0.08040  Biso   1.000  H
  Br2      1.0000 0.21100  0.24800  0.09900  Biso   1.000  Br
  Br3      1.0000 0.38020  0.17300  0.01420  Biso   1.000  Br
  H10      1.0000 0.25470  0.19430  0.16120  Biso   1.000  H
  Br4      1.0000 0.35140  0.20030  0.01620  Biso   1.000  Br
  Br5      1.0000 0.43600  0.06600  0.95000  Biso   1.000  Br
  Br6      1.0000 0.44100  0.10300  0.97900  Biso   1.000  Br
  O2       1.0000 0.53280  0.60020  0.09460  Biso   1.000  O
  F8       1.0000 0.27070  0.42850  0.11530  Biso   1.000  F
  F9       1.0000 0.25270  0.47040  0.10040  Biso   1.000  F
  F10      1.0000 0.31240  0.46810  0.26190  Biso   1.000  F
  F11      1.0000 0.57240  0.72690  0.01800  Biso   1.000  F
  F12      1.0000 0.50280  0.72980  0.89760  Biso   1.000  F
  F13      1.0000 0.59080  0.71140  0.97100  Biso   1.000  F
  F14      1.0000 0.46500  0.73030  0.90730  Biso   1.000  F
  C21      1.0000 0.60920  0.53450  0.30600  Biso   1.000  C
  H11      1.0000 0.56610  0.55800  0.31730  Biso   1.000  H
  C22      1.0000 0.67730  0.56820  0.28910  Biso   1.000  C
  C23      1.0000 0.68540  0.63480  0.24140  Biso   1.000  C
  H12      1.0000 0.64740  0.66590  0.24420  Biso   1.000  H
  C24      1.0000 0.75010  0.65180  0.19140  Biso   1.000  C
  C25      1.0000 0.81100  0.60380  0.18590  Biso   1.000  C
  C26      1.0000 0.80440  0.54520  0.24680  Biso   1.000  C
  C27      1.0000 0.73800  0.52790  0.29620  Biso   1.000  C
  C28      1.0000 0.89880  0.54010  0.07100  Biso   1.000  C
  H13      1.0000 0.92830  0.53530  0.00950  Biso   1.000  H
  C29      1.0000 0.86620  0.60420  0.10110  Biso   1.000  C
  H14      1.0000 0.88030  0.64350  0.06700  Biso   1.000  H
  Br7      1.0000 0.74900  0.72670  0.07060  Biso   1.000  Br
  C30      1.0000 0.60110  0.53420  0.32000  Biso   1.000  C
  H15      1.0000 0.55690  0.55560  0.33250  Biso   1.000  H
  C31      1.0000 0.66450  0.57460  0.30160  Biso   1.000  C
  C32      1.0000 0.66570  0.64320  0.25980  Biso   1.000  C
  H16      1.0000 0.62520  0.67090  0.26810  Biso   1.000  H
  C33      1.0000 0.72670  0.66780  0.20760  Biso   1.000  C
  H17      1.0000 0.72520  0.71130  0.18010  Biso   1.000  H
  C34      1.0000 0.79340  0.62670  0.19480  Biso   1.000  C
  C35      1.0000 0.79530  0.56670  0.25290  Biso   1.000  C
  C36      1.0000 0.73080  0.54270  0.30260  Biso   1.000  C
  C37      1.0000 0.83560  0.52380  0.22000  Biso   1.000  C
  C38      1.0000 0.88250  0.53050  0.13200  Biso   1.000  C
  C39      1.0000 0.89190  0.57480  0.08090  Biso   1.000  C
  H18      1.0000 0.92410  0.57590  0.02220  Biso   1.000  H
  C40      1.0000 0.84880  0.63330  0.11310  Biso   1.000  C
  H19      1.0000 0.85750  0.67450  0.08040  Biso   1.000  H
  Br8      1.0000 0.71100  0.74800  0.09900  Biso   1.000  Br
  Br9      1.0000 0.88020  0.67300  0.01420  Biso   1.000  Br
  H20      1.0000 0.75470  0.69430  0.16120  Biso   1.000  H
  Br10     1.0000 0.85140  0.70030  0.01620  Biso   1.000  Br
  Br11     1.0000 0.93600  0.56600  0.95000  Biso   1.000  Br
  Br12     1.0000 0.94100  0.60300  0.97900  Biso   1.000  Br
  O3       1.0000 0.96720  0.10020  0.90540  Biso   1.000  O
  F15      1.0000 0.22930  0.92850  0.88470  Biso   1.000  F
  F16      1.0000 0.24730  0.97040  0.89960  Biso   1.000  F
  F17      1.0000 0.18760  0.96810  0.73810  Biso   1.000  F
  F18      1.0000 0.92760  0.22690  0.98200  Biso   1.000  F
  F19      1.0000 0.99720  0.22980  0.10240  Biso   1.000  F
  F20      1.0000 0.90920  0.21140  0.02900  Biso   1.000  F
  F21      1.0000 0.03500  0.23030  0.09270  Biso   1.000  F
  C41      1.0000 0.89080  0.03450  0.69400  Biso   1.000  C
  H21      1.0000 0.93390  0.05800  0.68270  Biso   1.000  H
  C42      1.0000 0.82270  0.06820  0.71090  Biso   1.000  C
  C43      1.0000 0.81460  0.13480  0.75860  Biso   1.000  C
  H22      1.0000 0.85260  0.16590  0.75580  Biso   1.000  H
  C44      1.0000 0.74990  0.15180  0.80860  Biso   1.000  C
  C45      1.0000 0.68900  0.10380  0.81410  Biso   1.000  C
  C46      1.0000 0.69560  0.04520  0.75320  Biso   1.000  C
  C47      1.0000 0.76200  0.02790  0.70380  Biso   1.000  C
  C48      1.0000 0.60120  0.04010  0.92900  Biso   1.000  C
  H23      1.0000 0.57170  0.03530  0.99050  Biso   1.000  H
  C49      1.0000 0.63380  0.10420  0.89890  Biso   1.000  C
  H24      1.0000 0.61970  0.14350  0.93300  Biso   1.000  H
  Br13     1.0000 0.75100  0.22670  0.92940  Biso   1.000  Br
  C50      1.0000 0.89890  0.03420  0.68000  Biso   1.000  C
  H25      1.0000 0.94310  0.05560  0.66750  Biso   1.000  H
  C51      1.0000 0.83550  0.07460  0.69840  Biso   1.000  C
  C52      1.0000 0.83430  0.14320  0.74020  Biso   1.000  C
  H26      1.0000 0.87480  0.17090  0.73190  Biso   1.000  H
  C53      1.0000 0.77330  0.16780  0.79240  Biso   1.000  C
  H27      1.0000 0.77480  0.21130  0.81990  Biso   1.000  H
  C54      1.0000 0.70660  0.12670  0.80520  Biso   1.000  C
  C55      1.0000 0.70470  0.06670  0.74710  Biso   1.000  C
  C56      1.0000 0.76920  0.04270  0.69740  Biso   1.000  C
  C57      1.0000 0.66440  0.02380  0.78000  Biso   1.000  C
  C58      1.0000 0.61750  0.03050  0.86800  Biso   1.000  C
  C59      1.0000 0.60810  0.07480  0.91910  Biso   1.000  C
  H28      1.0000 0.57590  0.07590  0.97780  Biso   1.000  H
  C60      1.0000 0.65120  0.13330  0.88690  Biso   1.000  C
  H29      1.0000 0.64250  0.17450  0.91960  Biso   1.000  H
  Br14     1.0000 0.78900  0.24800  0.90100  Biso   1.000  Br
  Br15     1.0000 0.61980  0.17300  0.98580  Biso   1.000  Br
  H30      1.0000 0.74530  0.19430  0.83880  Biso   1.000  H
  Br16     1.0000 0.64860  0.20030  0.98380  Biso   1.000  Br
  Br17     1.0000 0.56400  0.06600  0.05000  Biso   1.000  Br
  Br18     1.0000 0.55900  0.10300  0.02100  Biso   1.000  Br
  O4       1.0000 0.46720  0.60020  0.90540  Biso   1.000  O
  F22      1.0000 0.72930  0.42850  0.88470  Biso   1.000  F
  F23      1.0000 0.74730  0.47040  0.89960  Biso   1.000  F
  F24      1.0000 0.68760  0.46810  0.73810  Biso   1.000  F
  F25      1.0000 0.42760  0.72690  0.98200  Biso   1.000  F
  F26      1.0000 0.49720  0.72980  0.10240  Biso   1.000  F
  F27      1.0000 0.40920  0.71140  0.02900  Biso   1.000  F
  F28      1.0000 0.53500  0.73030  0.09270  Biso   1.000  F
  C61      1.0000 0.39080  0.53450  0.69400  Biso   1.000  C
  H31      1.0000 0.43390  0.55800  0.68270  Biso   1.000  H
  C62      1.0000 0.32270  0.56820  0.71090  Biso   1.000  C
  C63      1.0000 0.31460  0.63480  0.75860  Biso   1.000  C
  H32      1.0000 0.35260  0.66590  0.75580  Biso   1.000  H
  C64      1.0000 0.24990  0.65180  0.80860  Biso   1.000  C
  C65      1.0000 0.18900  0.60380  0.81410  Biso   1.000  C
  C66      1.0000 0.19560  0.54520  0.75320  Biso   1.000  C
  C67      1.0000 0.26200  0.52790  0.70380  Biso   1.000  C
  C68      1.0000 0.10120  0.54010  0.92900  Biso   1.000  C
  H33      1.0000 0.07170  0.53530  0.99050  Biso   1.000  H
  C69      1.0000 0.13380  0.60420  0.89890  Biso   1.000  C
  H34      1.0000 0.11970  0.64350  0.93300  Biso   1.000  H
  Br19     1.0000 0.25100  0.72670  0.92940  Biso   1.000  Br
  C70      1.0000 0.39890  0.53420  0.68000  Biso   1.000  C
  H35      1.0000 0.44310  0.55560  0.66750  Biso   1.000  H
  C71      1.0000 0.33550  0.57460  0.69840  Biso   1.000  C
  C72      1.0000 0.33430  0.64320  0.74020  Biso   1.000  C
  H36      1.0000 0.37480  0.67090  0.73190  Biso   1.000  H
  C73      1.0000 0.27330  0.66780  0.79240  Biso   1.000  C
  H37      1.0000 0.27480  0.71130  0.81990  Biso   1.000  H
  C74      1.0000 0.20660  0.62670  0.80520  Biso   1.000  C
  C75      1.0000 0.20470  0.56670  0.74710  Biso   1.000  C
  C76      1.0000 0.26920  0.54270  0.69740  Biso   1.000  C
  C77      1.0000 0.16440  0.52380  0.78000  Biso   1.000  C
  C78      1.0000 0.11750  0.53050  0.86800  Biso   1.000  C
  C79      1.0000 0.10810  0.57480  0.91910  Biso   1.000  C
  H38      1.0000 0.07590  0.57590  0.97780  Biso   1.000  H
  C80      1.0000 0.15120  0.63330  0.88690  Biso   1.000  C
  H39      1.0000 0.14250  0.67450  0.91960  Biso   1.000  H
  Br20     1.0000 0.28900  0.74800  0.90100  Biso   1.000  Br
  Br21     1.0000 0.11980  0.67300  0.98580  Biso   1.000  Br
  H40      1.0000 0.24530  0.69430  0.83880  Biso   1.000  H
  Br22     1.0000 0.14860  0.70030  0.98380  Biso   1.000  Br
  Br23     1.0000 0.06400  0.56600  0.05000  Biso   1.000  Br
  Br24     1.0000 0.05900  0.60300  0.02100  Biso   1.000  Br
  O5       1.0000 0.96720  0.89980  0.90540  Biso   1.000  O
  F29      1.0000 0.22930  0.07150  0.88470  Biso   1.000  F
  F30      1.0000 0.24730  0.02960  0.89960  Biso   1.000  F
  F31      1.0000 0.18760  0.03190  0.73810  Biso   1.000  F
  F32      1.0000 0.92760  0.77310  0.98200  Biso   1.000  F
  F33      1.0000 0.99720  0.77020  0.10240  Biso   1.000  F
  F34      1.0000 0.90920  0.78860  0.02900  Biso   1.000  F
  F35      1.0000 0.03500  0.76970  0.09270  Biso   1.000  F
  C81      1.0000 0.89080  0.96550  0.69400  Biso   1.000  C
  H41      1.0000 0.93390  0.94200  0.68270  Biso   1.000  H
  C82      1.0000 0.82270  0.93180  0.71090  Biso   1.000  C
  C83      1.0000 0.81460  0.86520  0.75860  Biso   1.000  C
  H42      1.0000 0.85260  0.83410  0.75580  Biso   1.000  H
  C84      1.0000 0.74990  0.84820  0.80860  Biso   1.000  C
  C85      1.0000 0.68900  0.89620  0.81410  Biso   1.000  C
  C86      1.0000 0.69560  0.95480  0.75320  Biso   1.000  C
  C87      1.0000 0.76200  0.97210  0.70380  Biso   1.000  C
  C88      1.0000 0.60120  0.95990  0.92900  Biso   1.000  C
  H43      1.0000 0.57170  0.96470  0.99050  Biso   1.000  H
  C89      1.0000 0.63380  0.89580  0.89890  Biso   1.000  C
  H44      1.0000 0.61970  0.85650  0.93300  Biso   1.000  H
  Br25     1.0000 0.75100  0.77330  0.92940  Biso   1.000  Br
  C90      1.0000 0.89890  0.96580  0.68000  Biso   1.000  C
  H45      1.0000 0.94310  0.94440  0.66750  Biso   1.000  H
  C91      1.0000 0.83550  0.92540  0.69840  Biso   1.000  C
  C92      1.0000 0.83430  0.85680  0.74020  Biso   1.000  C
  H46      1.0000 0.87480  0.82910  0.73190  Biso   1.000  H
  C93      1.0000 0.77330  0.83220  0.79240  Biso   1.000  C
  H47      1.0000 0.77480  0.78870  0.81990  Biso   1.000  H
  C94      1.0000 0.70660  0.87330  0.80520  Biso   1.000  C
  C95      1.0000 0.70470  0.93330  0.74710  Biso   1.000  C
  C96      1.0000 0.76920  0.95730  0.69740  Biso   1.000  C
  C97      1.0000 0.66440  0.97620  0.78000  Biso   1.000  C
  C98      1.0000 0.61750  0.96950  0.86800  Biso   1.000  C
  C99      1.0000 0.60810  0.92520  0.91910  Biso   1.000  C
  H48      1.0000 0.57590  0.92410  0.97780  Biso   1.000  H
  C100     1.0000 0.65120  0.86670  0.88690  Biso   1.000  C
  H49      1.0000 0.64250  0.82550  0.91960  Biso   1.000  H
  Br26     1.0000 0.78900  0.75200  0.90100  Biso   1.000  Br
  Br27     1.0000 0.61980  0.82700  0.98580  Biso   1.000  Br
  H50      1.0000 0.74530  0.80570  0.83880  Biso   1.000  H
  Br28     1.0000 0.64860  0.79970  0.98380  Biso   1.000  Br
  Br29     1.0000 0.56400  0.93400  0.05000  Biso   1.000  Br
  Br30     1.0000 0.55900  0.89700  0.02100  Biso   1.000  Br
  O6       1.0000 0.46720  0.39980  0.90540  Biso   1.000  O
  F36      1.0000 0.72930  0.57150  0.88470  Biso   1.000  F
  F37      1.0000 0.74730  0.52960  0.89960  Biso   1.000  F
  F38      1.0000 0.68760  0.53190  0.73810  Biso   1.000  F
  F39      1.0000 0.42760  0.27310  0.98200  Biso   1.000  F
  F40      1.0000 0.49720  0.27020  0.10240  Biso   1.000  F
  F41      1.0000 0.40920  0.28860  0.02900  Biso   1.000  F
  F42      1.0000 0.53500  0.26970  0.09270  Biso   1.000  F
  C101     1.0000 0.39080  0.46550  0.69400  Biso   1.000  C
  H51      1.0000 0.43390  0.44200  0.68270  Biso   1.000  H
  C102     1.0000 0.32270  0.43180  0.71090  Biso   1.000  C
  C103     1.0000 0.31460  0.36520  0.75860  Biso   1.000  C
  H52      1.0000 0.35260  0.33410  0.75580  Biso   1.000  H
  C104     1.0000 0.24990  0.34820  0.80860  Biso   1.000  C
  C105     1.0000 0.18900  0.39620  0.81410  Biso   1.000  C
  C106     1.0000 0.19560  0.45480  0.75320  Biso   1.000  C
  C107     1.0000 0.26200  0.47210  0.70380  Biso   1.000  C
  C108     1.0000 0.10120  0.45990  0.92900  Biso   1.000  C
  H53      1.0000 0.07170  0.46470  0.99050  Biso   1.000  H
  C109     1.0000 0.13380  0.39580  0.89890  Biso   1.000  C
  H54      1.0000 0.11970  0.35650  0.93300  Biso   1.000  H
  Br31     1.0000 0.25100  0.27330  0.92940  Biso   1.000  Br
  C110     1.0000 0.39890  0.46580  0.68000  Biso   1.000  C
  H55      1.0000 0.44310  0.44440  0.66750  Biso   1.000  H
  C111     1.0000 0.33550  0.42540  0.69840  Biso   1.000  C
  C112     1.0000 0.33430  0.35680  0.74020  Biso   1.000  C
  H56      1.0000 0.37480  0.32910  0.73190  Biso   1.000  H
  C113     1.0000 0.27330  0.33220  0.79240  Biso   1.000  C
  H57      1.0000 0.27480  0.28870  0.81990  Biso   1.000  H
  C114     1.0000 0.20660  0.37330  0.80520  Biso   1.000  C
  C115     1.0000 0.20470  0.43330  0.74710  Biso   1.000  C
  C116     1.0000 0.26920  0.45730  0.69740  Biso   1.000  C
  C117     1.0000 0.16440  0.47620  0.78000  Biso   1.000  C
  C118     1.0000 0.11750  0.46950  0.86800  Biso   1.000  C
  C119     1.0000 0.10810  0.42520  0.91910  Biso   1.000  C
  H58      1.0000 0.07590  0.42410  0.97780  Biso   1.000  H
  C120     1.0000 0.15120  0.36670  0.88690  Biso   1.000  C
  H59      1.0000 0.14250  0.32550  0.91960  Biso   1.000  H
  Br32     1.0000 0.28900  0.25200  0.90100  Biso   1.000  Br
  Br33     1.0000 0.11980  0.32700  0.98580  Biso   1.000  Br
  H60      1.0000 0.24530  0.30570  0.83880  Biso   1.000  H
  Br34     1.0000 0.14860  0.29970  0.98380  Biso   1.000  Br
  Br35     1.0000 0.06400  0.43400  0.05000  Biso   1.000  Br
  Br36     1.0000 0.05900  0.39700  0.02100  Biso   1.000  Br
  O7       1.0000 0.03280  0.89980  0.09460  Biso   1.000  O
  F43      1.0000 0.77070  0.07150  0.11530  Biso   1.000  F
  F44      1.0000 0.75270  0.02960  0.10040  Biso   1.000  F
  F45      1.0000 0.81240  0.03190  0.26190  Biso   1.000  F
  F46      1.0000 0.07240  0.77310  0.01800  Biso   1.000  F
  F47      1.0000 0.00280  0.77020  0.89760  Biso   1.000  F
  F48      1.0000 0.09080  0.78860  0.97100  Biso   1.000  F
  F49      1.0000 0.96500  0.76970  0.90730  Biso   1.000  F
  C121     1.0000 0.10920  0.96550  0.30600  Biso   1.000  C
  H61      1.0000 0.06610  0.94200  0.31730  Biso   1.000  H
  C122     1.0000 0.17730  0.93180  0.28910  Biso   1.000  C
  C123     1.0000 0.18540  0.86520  0.24140  Biso   1.000  C
  H62      1.0000 0.14740  0.83410  0.24420  Biso   1.000  H
  C124     1.0000 0.25010  0.84820  0.19140  Biso   1.000  C
  C125     1.0000 0.31100  0.89620  0.18590  Biso   1.000  C
  C126     1.0000 0.30440  0.95480  0.24680  Biso   1.000  C
  C127     1.0000 0.23800  0.97210  0.29620  Biso   1.000  C
  C128     1.0000 0.39880  0.95990  0.07100  Biso   1.000  C
  H63      1.0000 0.42830  0.96470  0.00950  Biso   1.000  H
  C129     1.0000 0.36620  0.89580  0.10110  Biso   1.000  C
  H64      1.0000 0.38030  0.85650  0.06700  Biso   1.000  H
  Br37     1.0000 0.24900  0.77330  0.07060  Biso   1.000  Br
  C130     1.0000 0.10110  0.96580  0.32000  Biso   1.000  C
  H65      1.0000 0.05690  0.94440  0.33250  Biso   1.000  H
  C131     1.0000 0.16450  0.92540  0.30160  Biso   1.000  C
  C132     1.0000 0.16570  0.85680  0.25980  Biso   1.000  C
  H66      1.0000 0.12520  0.82910  0.26810  Biso   1.000  H
  C133     1.0000 0.22670  0.83220  0.20760  Biso   1.000  C
  H67      1.0000 0.22520  0.78870  0.18010  Biso   1.000  H
  C134     1.0000 0.29340  0.87330  0.19480  Biso   1.000  C
  C135     1.0000 0.29530  0.93330  0.25290  Biso   1.000  C
  C136     1.0000 0.23080  0.95730  0.30260  Biso   1.000  C
  C137     1.0000 0.33560  0.97620  0.22000  Biso   1.000  C
  C138     1.0000 0.38250  0.96950  0.13200  Biso   1.000  C
  C139     1.0000 0.39190  0.92520  0.08090  Biso   1.000  C
  H68      1.0000 0.42410  0.92410  0.02220  Biso   1.000  H
  C140     1.0000 0.34880  0.86670  0.11310  Biso   1.000  C
  H69      1.0000 0.35750  0.82550  0.08040  Biso   1.000  H
  Br38     1.0000 0.21100  0.75200  0.09900  Biso   1.000  Br
  Br39     1.0000 0.38020  0.82700  0.01420  Biso   1.000  Br
  H70      1.0000 0.25470  0.80570  0.16120  Biso   1.000  H
  Br40     1.0000 0.35140  0.79970  0.01620  Biso   1.000  Br
  Br41     1.0000 0.43600  0.93400  0.95000  Biso   1.000  Br
  Br42     1.0000 0.44100  0.89700  0.97900  Biso   1.000  Br
  O8       1.0000 0.53280  0.39980  0.09460  Biso   1.000  O
  F50      1.0000 0.27070  0.57150  0.11530  Biso   1.000  F
  F51      1.0000 0.25270  0.52960  0.10040  Biso   1.000  F
  F52      1.0000 0.31240  0.53190  0.26190  Biso   1.000  F
  F53      1.0000 0.57240  0.27310  0.01800  Biso   1.000  F
  F54      1.0000 0.50280  0.27020  0.89760  Biso   1.000  F
  F55      1.0000 0.59080  0.28860  0.97100  Biso   1.000  F
  F56      1.0000 0.46500  0.26970  0.90730  Biso   1.000  F
  C141     1.0000 0.60920  0.46550  0.30600  Biso   1.000  C
  H71      1.0000 0.56610  0.44200  0.31730  Biso   1.000  H
  C142     1.0000 0.67730  0.43180  0.28910  Biso   1.000  C
  C143     1.0000 0.68540  0.36520  0.24140  Biso   1.000  C
  H72      1.0000 0.64740  0.33410  0.24420  Biso   1.000  H
  C144     1.0000 0.75010  0.34820  0.19140  Biso   1.000  C
  C145     1.0000 0.81100  0.39620  0.18590  Biso   1.000  C
  C146     1.0000 0.80440  0.45480  0.24680  Biso   1.000  C
  C147     1.0000 0.73800  0.47210  0.29620  Biso   1.000  C
  C148     1.0000 0.89880  0.45990  0.07100  Biso   1.000  C
  H73      1.0000 0.92830  0.46470  0.00950  Biso   1.000  H
  C149     1.0000 0.86620  0.39580  0.10110  Biso   1.000  C
  H74      1.0000 0.88030  0.35650  0.06700  Biso   1.000  H
  Br43     1.0000 0.74900  0.27330  0.07060  Biso   1.000  Br
  C150     1.0000 0.60110  0.46580  0.32000  Biso   1.000  C
  H75      1.0000 0.55690  0.44440  0.33250  Biso   1.000  H
  C151     1.0000 0.66450  0.42540  0.30160  Biso   1.000  C
  C152     1.0000 0.66570  0.35680  0.25980  Biso   1.000  C
  H76      1.0000 0.62520  0.32910  0.26810  Biso   1.000  H
  C153     1.0000 0.72670  0.33220  0.20760  Biso   1.000  C
  H77      1.0000 0.72520  0.28870  0.18010  Biso   1.000  H
  C154     1.0000 0.79340  0.37330  0.19480  Biso   1.000  C
  C155     1.0000 0.79530  0.43330  0.25290  Biso   1.000  C
  C156     1.0000 0.73080  0.45730  0.30260  Biso   1.000  C
  C157     1.0000 0.83560  0.47620  0.22000  Biso   1.000  C
  C158     1.0000 0.88250  0.46950  0.13200  Biso   1.000  C
  C159     1.0000 0.89190  0.42520  0.08090  Biso   1.000  C
  H78      1.0000 0.92410  0.42410  0.02220  Biso   1.000  H
  C160     1.0000 0.84880  0.36670  0.11310  Biso   1.000  C
  H79      1.0000 0.85750  0.32550  0.08040  Biso   1.000  H
  Br44     1.0000 0.71100  0.25200  0.09900  Biso   1.000  Br
  Br45     1.0000 0.88020  0.32700  0.01420  Biso   1.000  Br
  H80      1.0000 0.75470  0.30570  0.16120  Biso   1.000  H
  Br46     1.0000 0.85140  0.29970  0.01620  Biso   1.000  Br
  Br47     1.0000 0.93600  0.43400  0.95000  Biso   1.000  Br
  Br48     1.0000 0.94100  0.39700  0.97900  Biso   1.000  Br
  Rh1      1.0000 0.03542  0.00000  0.10107  Biso   1.000  Rh
  O9       1.0000 0.93520  0.00000  0.16550  Biso   1.000  O
  O10      1.0000 0.86970  0.00000  0.97750  Biso   1.000  O
  C161     1.0000 0.80400  0.00000  0.14640  Biso   1.000  C
  F57      1.0000 0.81120  0.00000  0.26250  Biso   1.000  F
  C162     1.0000 0.87680  0.00000  0.09100  Biso   1.000  C
  C163     1.0000 0.34120  0.00000  0.21700  Biso   1.000  C
  C164     1.0000 0.38560  0.00000  0.12610  Biso   1.000  C
  Rh2      1.0000 0.53542  0.50000  0.10107  Biso   1.000  Rh
  O11      1.0000 0.43520  0.50000  0.16550  Biso   1.000  O
  O12      1.0000 0.36970  0.50000  0.97750  Biso   1.000  O
  C165     1.0000 0.30400  0.50000  0.14640  Biso   1.000  C
  F58      1.0000 0.31120  0.50000  0.26250  Biso   1.000  F
  C166     1.0000 0.37680  0.50000  0.09100  Biso   1.000  C
  C167     1.0000 0.84120  0.50000  0.21700  Biso   1.000  C
  C168     1.0000 0.88560  0.50000  0.12610  Biso   1.000  C
  Rh3      1.0000 0.96458  0.00000  0.89893  Biso   1.000  Rh
  O13      1.0000 0.06480  0.00000  0.83450  Biso   1.000  O
  O14      1.0000 0.13030  0.00000  0.02250  Biso   1.000  O
  C169     1.0000 0.19600  0.00000  0.85360  Biso   1.000  C
  F59      1.0000 0.18880  0.00000  0.73750  Biso   1.000  F
  C170     1.0000 0.12320  0.00000  0.90900  Biso   1.000  C
  C171     1.0000 0.65880  0.00000  0.78300  Biso   1.000  C
  C172     1.0000 0.61440  0.00000  0.87390  Biso   1.000  C
  Rh4      1.0000 0.46458  0.50000  0.89893  Biso   1.000  Rh
  O15      1.0000 0.56480  0.50000  0.83450  Biso   1.000  O
  O16      1.0000 0.63030  0.50000  0.02250  Biso   1.000  O
  C173     1.0000 0.69600  0.50000  0.85360  Biso   1.000  C
  F60      1.0000 0.68880  0.50000  0.73750  Biso   1.000  F
  C174     1.0000 0.62320  0.50000  0.90900  Biso   1.000  C
  C175     1.0000 0.15880  0.50000  0.78300  Biso   1.000  C
  C176     1.0000 0.11440  0.50000  0.87390  Biso   1.000  C
  C177     1.0000 0.00000  0.20250  0.00000  Biso   1.000  C
  C178     1.0000 0.00000  0.12740  0.00000  Biso   1.000  C
  C179     1.0000 0.50000  0.70250  0.00000  Biso   1.000  C
  C180     1.0000 0.50000  0.62740  0.00000  Biso   1.000  C
  C181     1.0000 0.00000  0.79750  0.00000  Biso   1.000  C
  C182     1.0000 0.00000  0.87260  0.00000  Biso   1.000  C
  C183     1.0000 0.50000  0.29750  0.00000  Biso   1.000  C
  C184     1.0000 0.50000  0.37260  0.00000  Biso   1.000  C
