data_image0
_cell_length_a       19.772
_cell_length_b       9.997
_cell_length_c       23.51
_cell_angle_alpha    90
_cell_angle_beta     105.5
_cell_angle_gamma    90

_symmetry_space_group_name_H-M    "P 1"
_symmetry_int_tables_number       1

loop_
  _symmetry_equiv_pos_as_xyz
  'x, y, z'

loop_
  _atom_site_label
  _atom_site_occupancy
  _atom_site_fract_x
  _atom_site_fract_y
  _atom_site_fract_z
  _atom_site_thermal_displace_type
  _atom_site_B_iso_or_equiv
  _atom_site_type_symbol
  Cd1      1.0000 0.36787  0.50424  0.25109  Biso   1.000  Cd
  N1       1.0000 0.26381  0.52730  0.17995  Biso   1.000  N
  N2       1.0000 0.17871  0.62850  0.11067  Biso   1.000  N
  N3       1.0000 0.15208  0.52810  0.13692  Biso   1.000  N
  N4       1.0000 0.30389  0.51950  0.32189  Biso   1.000  N
  N5       1.0000 0.23995  0.63810  0.36932  Biso   1.000  N
  N6       1.0000 0.27389  0.53610  0.40401  Biso   1.000  N
  C1       1.0000 0.24610  0.62260  0.13805  Biso   1.000  C
  H1       1.0000 0.27890  0.67980  0.12920  Biso   1.000  H
  C2       1.0000 0.20256  0.47020  0.17819  Biso   1.000  C
  H2       1.0000 0.19610  0.40030  0.20230  Biso   1.000  H
  C3       1.0000 0.07609  0.50210  0.12365  Biso   1.000  C
  H3       1.0000 0.05500  0.56920  0.14330  Biso   1.000  H
  H4       1.0000 0.06890  0.41560  0.13980  Biso   1.000  H
  C4       1.0000 0.08600  0.27050  0.05170  Biso   1.000  C
  H5       1.0000 0.11780  0.29670  0.08850  Biso   1.000  H
  H6       1.0000 0.11220  0.24060  0.02510  Biso   1.000  H
  H7       1.0000 0.05660  0.19920  0.05850  Biso   1.000  H
  C5       1.0000 0.04079  0.38910  0.02496  Biso   1.000  C
  C6       1.0000 0.03875  0.50350  0.05824  Biso   1.000  C
  C7       1.0000 0.99894  0.61530  0.03439  Biso   1.000  C
  C8       1.0000 0.99870  0.73910  0.07110  Biso   1.000  C
  H8       1.0000 0.95980  0.73530  0.08830  Biso   1.000  H
  H9       1.0000 0.99440  0.81690  0.04650  Biso   1.000  H
  H10      1.0000 0.04170  0.74380  0.10190  Biso   1.000  H
  C9       1.0000 0.25955  0.62360  0.32097  Biso   1.000  C
  H11      1.0000 0.24440  0.67980  0.28860  Biso   1.000  H
  C10      1.0000 0.31120  0.46800  0.37548  Biso   1.000  C
  H12      1.0000 0.33890  0.39430  0.39050  Biso   1.000  H
  C11      1.0000 0.26730  0.52240  0.46485  Biso   1.000  C
  H13      1.0000 0.22700  0.57360  0.46860  Biso   1.000  H
  H14      1.0000 0.30870  0.56000  0.49210  Biso   1.000  H
  C12      1.0000 0.38990  0.36940  0.53380  Biso   1.000  C
  H15      1.0000 0.39920  0.40670  0.57280  Biso   1.000  H
  H16      1.0000 0.39260  0.43870  0.50620  Biso   1.000  H
  H17      1.0000 0.42400  0.30160  0.53320  Biso   1.000  H
  C13      1.0000 0.31730  0.30850  0.51688  Biso   1.000  C
  C14      1.0000 0.25890  0.37840  0.48189  Biso   1.000  C
  C15      1.0000 0.19230  0.32060  0.46473  Biso   1.000  C
  C16      1.0000 0.13060  0.39660  0.42630  Biso   1.000  C
  H18      1.0000 0.10520  0.43940  0.45080  Biso   1.000  H
  H19      1.0000 0.10010  0.33550  0.39990  Biso   1.000  H
  H20      1.0000 0.14740  0.46300  0.40390  Biso   1.000  H
  Cd2      1.0000 0.86787  0.00424  0.25109  Biso   1.000  Cd
  N7       1.0000 0.76381  0.02730  0.17995  Biso   1.000  N
  N8       1.0000 0.67871  0.12850  0.11067  Biso   1.000  N
  N9       1.0000 0.65208  0.02810  0.13692  Biso   1.000  N
  N10      1.0000 0.80389  0.01950  0.32189  Biso   1.000  N
  N11      1.0000 0.73995  0.13810  0.36932  Biso   1.000  N
  N12      1.0000 0.77389  0.03610  0.40401  Biso   1.000  N
  C17      1.0000 0.74610  0.12260  0.13805  Biso   1.000  C
  H21      1.0000 0.77890  0.17980  0.12920  Biso   1.000  H
  C18      1.0000 0.70256  0.97020  0.17819  Biso   1.000  C
  H22      1.0000 0.69610  0.90030  0.20230  Biso   1.000  H
  C19      1.0000 0.57609  0.00210  0.12365  Biso   1.000  C
  H23      1.0000 0.55500  0.06920  0.14330  Biso   1.000  H
  H24      1.0000 0.56890  0.91560  0.13980  Biso   1.000  H
  C20      1.0000 0.58600  0.77050  0.05170  Biso   1.000  C
  H25      1.0000 0.61780  0.79670  0.08850  Biso   1.000  H
  H26      1.0000 0.61220  0.74060  0.02510  Biso   1.000  H
  H27      1.0000 0.55660  0.69920  0.05850  Biso   1.000  H
  C21      1.0000 0.54079  0.88910  0.02496  Biso   1.000  C
  C22      1.0000 0.53875  0.00350  0.05824  Biso   1.000  C
  C23      1.0000 0.49894  0.11530  0.03439  Biso   1.000  C
  C24      1.0000 0.49870  0.23910  0.07110  Biso   1.000  C
  H28      1.0000 0.45980  0.23530  0.08830  Biso   1.000  H
  H29      1.0000 0.49440  0.31690  0.04650  Biso   1.000  H
  H30      1.0000 0.54170  0.24380  0.10190  Biso   1.000  H
  C25      1.0000 0.75955  0.12360  0.32097  Biso   1.000  C
  H31      1.0000 0.74440  0.17980  0.28860  Biso   1.000  H
  C26      1.0000 0.81120  0.96800  0.37548  Biso   1.000  C
  H32      1.0000 0.83890  0.89430  0.39050  Biso   1.000  H
  C27      1.0000 0.76730  0.02240  0.46485  Biso   1.000  C
  H33      1.0000 0.72700  0.07360  0.46860  Biso   1.000  H
  H34      1.0000 0.80870  0.06000  0.49210  Biso   1.000  H
  C28      1.0000 0.88990  0.86940  0.53380  Biso   1.000  C
  H35      1.0000 0.89920  0.90670  0.57280  Biso   1.000  H
  H36      1.0000 0.89260  0.93870  0.50620  Biso   1.000  H
  H37      1.0000 0.92400  0.80160  0.53320  Biso   1.000  H
  C29      1.0000 0.81730  0.80850  0.51688  Biso   1.000  C
  C30      1.0000 0.75890  0.87840  0.48189  Biso   1.000  C
  C31      1.0000 0.69230  0.82060  0.46473  Biso   1.000  C
  C32      1.0000 0.63060  0.89660  0.42630  Biso   1.000  C
  H38      1.0000 0.60520  0.93940  0.45080  Biso   1.000  H
  H39      1.0000 0.60010  0.83550  0.39990  Biso   1.000  H
  H40      1.0000 0.64740  0.96300  0.40390  Biso   1.000  H
  Cd3      1.0000 0.63213  0.49576  0.74891  Biso   1.000  Cd
  N13      1.0000 0.73619  0.47270  0.82005  Biso   1.000  N
  N14      1.0000 0.82129  0.37150  0.88933  Biso   1.000  N
  N15      1.0000 0.84792  0.47190  0.86308  Biso   1.000  N
  N16      1.0000 0.69611  0.48050  0.67811  Biso   1.000  N
  N17      1.0000 0.76005  0.36190  0.63068  Biso   1.000  N
  N18      1.0000 0.72611  0.46390  0.59599  Biso   1.000  N
  C33      1.0000 0.75390  0.37740  0.86195  Biso   1.000  C
  H41      1.0000 0.72110  0.32020  0.87080  Biso   1.000  H
  C34      1.0000 0.79744  0.52980  0.82181  Biso   1.000  C
  H42      1.0000 0.80390  0.59970  0.79770  Biso   1.000  H
  C35      1.0000 0.92391  0.49790  0.87635  Biso   1.000  C
  H43      1.0000 0.94500  0.43080  0.85670  Biso   1.000  H
  H44      1.0000 0.93110  0.58440  0.86020  Biso   1.000  H
  C36      1.0000 0.91400  0.72950  0.94830  Biso   1.000  C
  H45      1.0000 0.88220  0.70330  0.91150  Biso   1.000  H
  H46      1.0000 0.88780  0.75940  0.97490  Biso   1.000  H
  H47      1.0000 0.94340  0.80080  0.94150  Biso   1.000  H
  C37      1.0000 0.95921  0.61090  0.97504  Biso   1.000  C
  C38      1.0000 0.96125  0.49650  0.94176  Biso   1.000  C
  C39      1.0000 0.00106  0.38470  0.96561  Biso   1.000  C
  C40      1.0000 0.00130  0.26090  0.92890  Biso   1.000  C
  H48      1.0000 0.04020  0.26470  0.91170  Biso   1.000  H
  H49      1.0000 0.00560  0.18310  0.95350  Biso   1.000  H
  H50      1.0000 0.95830  0.25620  0.89810  Biso   1.000  H
  C41      1.0000 0.74045  0.37640  0.67903  Biso   1.000  C
  H51      1.0000 0.75560  0.32020  0.71140  Biso   1.000  H
  C42      1.0000 0.68880  0.53200  0.62452  Biso   1.000  C
  H52      1.0000 0.66110  0.60570  0.60950  Biso   1.000  H
  C43      1.0000 0.73270  0.47760  0.53515  Biso   1.000  C
  H53      1.0000 0.77300  0.42640  0.53140  Biso   1.000  H
  H54      1.0000 0.69130  0.44000  0.50790  Biso   1.000  H
  C44      1.0000 0.61010  0.63060  0.46620  Biso   1.000  C
  H55      1.0000 0.60080  0.59330  0.42720  Biso   1.000  H
  H56      1.0000 0.60740  0.56130  0.49380  Biso   1.000  H
  H57      1.0000 0.57600  0.69840  0.46680  Biso   1.000  H
  C45      1.0000 0.68270  0.69150  0.48312  Biso   1.000  C
  C46      1.0000 0.74110  0.62160  0.51811  Biso   1.000  C
  C47      1.0000 0.80770  0.67940  0.53527  Biso   1.000  C
  C48      1.0000 0.86940  0.60340  0.57370  Biso   1.000  C
  H58      1.0000 0.89480  0.56060  0.54920  Biso   1.000  H
  H59      1.0000 0.89990  0.66450  0.60010  Biso   1.000  H
  H60      1.0000 0.85260  0.53700  0.59610  Biso   1.000  H
  Cd4      1.0000 0.13213  0.99576  0.74891  Biso   1.000  Cd
  N19      1.0000 0.23619  0.97270  0.82005  Biso   1.000  N
  N20      1.0000 0.32129  0.87150  0.88933  Biso   1.000  N
  N21      1.0000 0.34792  0.97190  0.86308  Biso   1.000  N
  N22      1.0000 0.19611  0.98050  0.67811  Biso   1.000  N
  N23      1.0000 0.26005  0.86190  0.63068  Biso   1.000  N
  N24      1.0000 0.22611  0.96390  0.59599  Biso   1.000  N
  C49      1.0000 0.25390  0.87740  0.86195  Biso   1.000  C
  H61      1.0000 0.22110  0.82020  0.87080  Biso   1.000  H
  C50      1.0000 0.29744  0.02980  0.82181  Biso   1.000  C
  H62      1.0000 0.30390  0.09970  0.79770  Biso   1.000  H
  C51      1.0000 0.42391  0.99790  0.87635  Biso   1.000  C
  H63      1.0000 0.44500  0.93080  0.85670  Biso   1.000  H
  H64      1.0000 0.43110  0.08440  0.86020  Biso   1.000  H
  C52      1.0000 0.41400  0.22950  0.94830  Biso   1.000  C
  H65      1.0000 0.38220  0.20330  0.91150  Biso   1.000  H
  H66      1.0000 0.38780  0.25940  0.97490  Biso   1.000  H
  H67      1.0000 0.44340  0.30080  0.94150  Biso   1.000  H
  C53      1.0000 0.45921  0.11090  0.97504  Biso   1.000  C
  C54      1.0000 0.46125  0.99650  0.94176  Biso   1.000  C
  C55      1.0000 0.50106  0.88470  0.96561  Biso   1.000  C
  C56      1.0000 0.50130  0.76090  0.92890  Biso   1.000  C
  H68      1.0000 0.54020  0.76470  0.91170  Biso   1.000  H
  H69      1.0000 0.50560  0.68310  0.95350  Biso   1.000  H
  H70      1.0000 0.45830  0.75620  0.89810  Biso   1.000  H
  C57      1.0000 0.24045  0.87640  0.67903  Biso   1.000  C
  H71      1.0000 0.25560  0.82020  0.71140  Biso   1.000  H
  C58      1.0000 0.18880  0.03200  0.62452  Biso   1.000  C
  H72      1.0000 0.16110  0.10570  0.60950  Biso   1.000  H
  C59      1.0000 0.23270  0.97760  0.53515  Biso   1.000  C
  H73      1.0000 0.27300  0.92640  0.53140  Biso   1.000  H
  H74      1.0000 0.19130  0.94000  0.50790  Biso   1.000  H
  C60      1.0000 0.11010  0.13060  0.46620  Biso   1.000  C
  H75      1.0000 0.10080  0.09330  0.42720  Biso   1.000  H
  H76      1.0000 0.10740  0.06130  0.49380  Biso   1.000  H
  H77      1.0000 0.07600  0.19840  0.46680  Biso   1.000  H
  C61      1.0000 0.18270  0.19150  0.48312  Biso   1.000  C
  C62      1.0000 0.24110  0.12160  0.51811  Biso   1.000  C
  C63      1.0000 0.30770  0.17940  0.53527  Biso   1.000  C
  C64      1.0000 0.36940  0.10340  0.57370  Biso   1.000  C
  H78      1.0000 0.39480  0.06060  0.54920  Biso   1.000  H
  H79      1.0000 0.39990  0.16450  0.60010  Biso   1.000  H
  H80      1.0000 0.35260  0.03700  0.59610  Biso   1.000  H
  Cd5      1.0000 0.63213  0.50424  0.24891  Biso   1.000  Cd
  N25      1.0000 0.73619  0.52730  0.32005  Biso   1.000  N
  N26      1.0000 0.82129  0.62850  0.38933  Biso   1.000  N
  N27      1.0000 0.84792  0.52810  0.36308  Biso   1.000  N
  N28      1.0000 0.69611  0.51950  0.17811  Biso   1.000  N
  N29      1.0000 0.76005  0.63810  0.13068  Biso   1.000  N
  N30      1.0000 0.72611  0.53610  0.09599  Biso   1.000  N
  C65      1.0000 0.75390  0.62260  0.36195  Biso   1.000  C
  H81      1.0000 0.72110  0.67980  0.37080  Biso   1.000  H
  C66      1.0000 0.79744  0.47020  0.32181  Biso   1.000  C
  H82      1.0000 0.80390  0.40030  0.29770  Biso   1.000  H
  C67      1.0000 0.92391  0.50210  0.37635  Biso   1.000  C
  H83      1.0000 0.94500  0.56920  0.35670  Biso   1.000  H
  H84      1.0000 0.93110  0.41560  0.36020  Biso   1.000  H
  C68      1.0000 0.91400  0.27050  0.44830  Biso   1.000  C
  H85      1.0000 0.88220  0.29670  0.41150  Biso   1.000  H
  H86      1.0000 0.88780  0.24060  0.47490  Biso   1.000  H
  H87      1.0000 0.94340  0.19920  0.44150  Biso   1.000  H
  C69      1.0000 0.95921  0.38910  0.47504  Biso   1.000  C
  C70      1.0000 0.96125  0.50350  0.44176  Biso   1.000  C
  C71      1.0000 0.00106  0.61530  0.46561  Biso   1.000  C
  C72      1.0000 0.00130  0.73910  0.42890  Biso   1.000  C
  H88      1.0000 0.04020  0.73530  0.41170  Biso   1.000  H
  H89      1.0000 0.00560  0.81690  0.45350  Biso   1.000  H
  H90      1.0000 0.95830  0.74380  0.39810  Biso   1.000  H
  C73      1.0000 0.74045  0.62360  0.17903  Biso   1.000  C
  H91      1.0000 0.75560  0.67980  0.21140  Biso   1.000  H
  C74      1.0000 0.68880  0.46800  0.12452  Biso   1.000  C
  H92      1.0000 0.66110  0.39430  0.10950  Biso   1.000  H
  C75      1.0000 0.73270  0.52240  0.03515  Biso   1.000  C
  H93      1.0000 0.77300  0.57360  0.03140  Biso   1.000  H
  H94      1.0000 0.69130  0.56000  0.00790  Biso   1.000  H
  C76      1.0000 0.61010  0.36940  0.96620  Biso   1.000  C
  H95      1.0000 0.60080  0.40670  0.92720  Biso   1.000  H
  H96      1.0000 0.60740  0.43870  0.99380  Biso   1.000  H
  H97      1.0000 0.57600  0.30160  0.96680  Biso   1.000  H
  C77      1.0000 0.68270  0.30850  0.98312  Biso   1.000  C
  C78      1.0000 0.74110  0.37840  0.01811  Biso   1.000  C
  C79      1.0000 0.80770  0.32060  0.03527  Biso   1.000  C
  C80      1.0000 0.86940  0.39660  0.07370  Biso   1.000  C
  H98      1.0000 0.89480  0.43940  0.04920  Biso   1.000  H
  H99      1.0000 0.89990  0.33550  0.10010  Biso   1.000  H
  H100     1.0000 0.85260  0.46300  0.09610  Biso   1.000  H
  Cd6      1.0000 0.13213  0.00424  0.24891  Biso   1.000  Cd
  N31      1.0000 0.23619  0.02730  0.32005  Biso   1.000  N
  N32      1.0000 0.32129  0.12850  0.38933  Biso   1.000  N
  N33      1.0000 0.34792  0.02810  0.36308  Biso   1.000  N
  N34      1.0000 0.19611  0.01950  0.17811  Biso   1.000  N
  N35      1.0000 0.26005  0.13810  0.13068  Biso   1.000  N
  N36      1.0000 0.22611  0.03610  0.09599  Biso   1.000  N
  C81      1.0000 0.25390  0.12260  0.36195  Biso   1.000  C
  H101     1.0000 0.22110  0.17980  0.37080  Biso   1.000  H
  C82      1.0000 0.29744  0.97020  0.32181  Biso   1.000  C
  H102     1.0000 0.30390  0.90030  0.29770  Biso   1.000  H
  C83      1.0000 0.42391  0.00210  0.37635  Biso   1.000  C
  H103     1.0000 0.44500  0.06920  0.35670  Biso   1.000  H
  H104     1.0000 0.43110  0.91560  0.36020  Biso   1.000  H
  C84      1.0000 0.41400  0.77050  0.44830  Biso   1.000  C
  H105     1.0000 0.38220  0.79670  0.41150  Biso   1.000  H
  H106     1.0000 0.38780  0.74060  0.47490  Biso   1.000  H
  H107     1.0000 0.44340  0.69920  0.44150  Biso   1.000  H
  C85      1.0000 0.45921  0.88910  0.47504  Biso   1.000  C
  C86      1.0000 0.46125  0.00350  0.44176  Biso   1.000  C
  C87      1.0000 0.50106  0.11530  0.46561  Biso   1.000  C
  C88      1.0000 0.50130  0.23910  0.42890  Biso   1.000  C
  H108     1.0000 0.54020  0.23530  0.41170  Biso   1.000  H
  H109     1.0000 0.50560  0.31690  0.45350  Biso   1.000  H
  H110     1.0000 0.45830  0.24380  0.39810  Biso   1.000  H
  C89      1.0000 0.24045  0.12360  0.17903  Biso   1.000  C
  H111     1.0000 0.25560  0.17980  0.21140  Biso   1.000  H
  C90      1.0000 0.18880  0.96800  0.12452  Biso   1.000  C
  H112     1.0000 0.16110  0.89430  0.10950  Biso   1.000  H
  C91      1.0000 0.23270  0.02240  0.03515  Biso   1.000  C
  H113     1.0000 0.27300  0.07360  0.03140  Biso   1.000  H
  H114     1.0000 0.19130  0.06000  0.00790  Biso   1.000  H
  C92      1.0000 0.11010  0.86940  0.96620  Biso   1.000  C
  H115     1.0000 0.10080  0.90670  0.92720  Biso   1.000  H
  H116     1.0000 0.10740  0.93870  0.99380  Biso   1.000  H
  H117     1.0000 0.07600  0.80160  0.96680  Biso   1.000  H
  C93      1.0000 0.18270  0.80850  0.98312  Biso   1.000  C
  C94      1.0000 0.24110  0.87840  0.01811  Biso   1.000  C
  C95      1.0000 0.30770  0.82060  0.03527  Biso   1.000  C
  C96      1.0000 0.36940  0.89660  0.07370  Biso   1.000  C
  H118     1.0000 0.39480  0.93940  0.04920  Biso   1.000  H
  H119     1.0000 0.39990  0.83550  0.10010  Biso   1.000  H
  H120     1.0000 0.35260  0.96300  0.09610  Biso   1.000  H
  Cd7      1.0000 0.36787  0.49576  0.75109  Biso   1.000  Cd
  N37      1.0000 0.26381  0.47270  0.67995  Biso   1.000  N
  N38      1.0000 0.17871  0.37150  0.61067  Biso   1.000  N
  N39      1.0000 0.15208  0.47190  0.63692  Biso   1.000  N
  N40      1.0000 0.30389  0.48050  0.82189  Biso   1.000  N
  N41      1.0000 0.23995  0.36190  0.86932  Biso   1.000  N
  N42      1.0000 0.27389  0.46390  0.90401  Biso   1.000  N
  C97      1.0000 0.24610  0.37740  0.63805  Biso   1.000  C
  H121     1.0000 0.27890  0.32020  0.62920  Biso   1.000  H
  C98      1.0000 0.20256  0.52980  0.67819  Biso   1.000  C
  H122     1.0000 0.19610  0.59970  0.70230  Biso   1.000  H
  C99      1.0000 0.07609  0.49790  0.62365  Biso   1.000  C
  H123     1.0000 0.05500  0.43080  0.64330  Biso   1.000  H
  H124     1.0000 0.06890  0.58440  0.63980  Biso   1.000  H
  C100     1.0000 0.08600  0.72950  0.55170  Biso   1.000  C
  H125     1.0000 0.11780  0.70330  0.58850  Biso   1.000  H
  H126     1.0000 0.11220  0.75940  0.52510  Biso   1.000  H
  H127     1.0000 0.05660  0.80080  0.55850  Biso   1.000  H
  C101     1.0000 0.04079  0.61090  0.52496  Biso   1.000  C
  C102     1.0000 0.03875  0.49650  0.55824  Biso   1.000  C
  C103     1.0000 0.99894  0.38470  0.53439  Biso   1.000  C
  C104     1.0000 0.99870  0.26090  0.57110  Biso   1.000  C
  H128     1.0000 0.95980  0.26470  0.58830  Biso   1.000  H
  H129     1.0000 0.99440  0.18310  0.54650  Biso   1.000  H
  H130     1.0000 0.04170  0.25620  0.60190  Biso   1.000  H
  C105     1.0000 0.25955  0.37640  0.82097  Biso   1.000  C
  H131     1.0000 0.24440  0.32020  0.78860  Biso   1.000  H
  C106     1.0000 0.31120  0.53200  0.87548  Biso   1.000  C
  H132     1.0000 0.33890  0.60570  0.89050  Biso   1.000  H
  C107     1.0000 0.26730  0.47760  0.96485  Biso   1.000  C
  H133     1.0000 0.22700  0.42640  0.96860  Biso   1.000  H
  H134     1.0000 0.30870  0.44000  0.99210  Biso   1.000  H
  C108     1.0000 0.38990  0.63060  0.03380  Biso   1.000  C
  H135     1.0000 0.39920  0.59330  0.07280  Biso   1.000  H
  H136     1.0000 0.39260  0.56130  0.00620  Biso   1.000  H
  H137     1.0000 0.42400  0.69840  0.03320  Biso   1.000  H
  C109     1.0000 0.31730  0.69150  0.01688  Biso   1.000  C
  C110     1.0000 0.25890  0.62160  0.98189  Biso   1.000  C
  C111     1.0000 0.19230  0.67940  0.96473  Biso   1.000  C
  C112     1.0000 0.13060  0.60340  0.92630  Biso   1.000  C
  H138     1.0000 0.10520  0.56060  0.95080  Biso   1.000  H
  H139     1.0000 0.10010  0.66450  0.89990  Biso   1.000  H
  H140     1.0000 0.14740  0.53700  0.90390  Biso   1.000  H
  Cd8      1.0000 0.86787  0.99576  0.75109  Biso   1.000  Cd
  N43      1.0000 0.76381  0.97270  0.67995  Biso   1.000  N
  N44      1.0000 0.67871  0.87150  0.61067  Biso   1.000  N
  N45      1.0000 0.65208  0.97190  0.63692  Biso   1.000  N
  N46      1.0000 0.80389  0.98050  0.82189  Biso   1.000  N
  N47      1.0000 0.73995  0.86190  0.86932  Biso   1.000  N
  N48      1.0000 0.77389  0.96390  0.90401  Biso   1.000  N
  C113     1.0000 0.74610  0.87740  0.63805  Biso   1.000  C
  H141     1.0000 0.77890  0.82020  0.62920  Biso   1.000  H
  C114     1.0000 0.70256  0.02980  0.67819  Biso   1.000  C
  H142     1.0000 0.69610  0.09970  0.70230  Biso   1.000  H
  C115     1.0000 0.57609  0.99790  0.62365  Biso   1.000  C
  H143     1.0000 0.55500  0.93080  0.64330  Biso   1.000  H
  H144     1.0000 0.56890  0.08440  0.63980  Biso   1.000  H
  C116     1.0000 0.58600  0.22950  0.55170  Biso   1.000  C
  H145     1.0000 0.61780  0.20330  0.58850  Biso   1.000  H
  H146     1.0000 0.61220  0.25940  0.52510  Biso   1.000  H
  H147     1.0000 0.55660  0.30080  0.55850  Biso   1.000  H
  C117     1.0000 0.54079  0.11090  0.52496  Biso   1.000  C
  C118     1.0000 0.53875  0.99650  0.55824  Biso   1.000  C
  C119     1.0000 0.49894  0.88470  0.53439  Biso   1.000  C
  C120     1.0000 0.49870  0.76090  0.57110  Biso   1.000  C
  H148     1.0000 0.45980  0.76470  0.58830  Biso   1.000  H
  H149     1.0000 0.49440  0.68310  0.54650  Biso   1.000  H
  H150     1.0000 0.54170  0.75620  0.60190  Biso   1.000  H
  C121     1.0000 0.75955  0.87640  0.82097  Biso   1.000  C
  H151     1.0000 0.74440  0.82020  0.78860  Biso   1.000  H
  C122     1.0000 0.81120  0.03200  0.87548  Biso   1.000  C
  H152     1.0000 0.83890  0.10570  0.89050  Biso   1.000  H
  C123     1.0000 0.76730  0.97760  0.96485  Biso   1.000  C
  H153     1.0000 0.72700  0.92640  0.96860  Biso   1.000  H
  H154     1.0000 0.80870  0.94000  0.99210  Biso   1.000  H
  C124     1.0000 0.88990  0.13060  0.03380  Biso   1.000  C
  H155     1.0000 0.89920  0.09330  0.07280  Biso   1.000  H
  H156     1.0000 0.89260  0.06130  0.00620  Biso   1.000  H
  H157     1.0000 0.92400  0.19840  0.03320  Biso   1.000  H
  C125     1.0000 0.81730  0.19150  0.01688  Biso   1.000  C
  C126     1.0000 0.75890  0.12160  0.98189  Biso   1.000  C
  C127     1.0000 0.69230  0.17940  0.96473  Biso   1.000  C
  C128     1.0000 0.63060  0.10340  0.92630  Biso   1.000  C
  H158     1.0000 0.60520  0.06060  0.95080  Biso   1.000  H
  H159     1.0000 0.60010  0.16450  0.89990  Biso   1.000  H
  H160     1.0000 0.64740  0.03700  0.90390  Biso   1.000  H
