data_image0
_cell_length_a       12.2673
_cell_length_b       16.452
_cell_length_c       16.597
_cell_angle_alpha    92.251
_cell_angle_beta     90.256
_cell_angle_gamma    101.757

_symmetry_space_group_name_H-M    "P 1"
_symmetry_int_tables_number       1

loop_
  _symmetry_equiv_pos_as_xyz
  'x, y, z'

loop_
  _atom_site_label
  _atom_site_occupancy
  _atom_site_fract_x
  _atom_site_fract_y
  _atom_site_fract_z
  _atom_site_thermal_displace_type
  _atom_site_B_iso_or_equiv
  _atom_site_type_symbol
  Cd1      1.0000 0.11702  0.83487  0.02787  Biso   1.000  Cd
  Cd2      1.0000 0.84074  0.70143  0.38771  Biso   1.000  Cd
  C1       1.0000 0.34750  0.97660  0.01480  Biso   1.000  C
  H1       1.0000 0.38070  0.93430  0.99430  Biso   1.000  H
  C2       1.0000 0.22460  0.04000  0.05420  Biso   1.000  C
  H2       1.0000 0.15710  0.05400  0.06790  Biso   1.000  H
  C3       1.0000 0.89870  0.68280  0.07250  Biso   1.000  C
  H3       1.0000 0.87630  0.71360  0.11520  Biso   1.000  H
  C4       1.0000 0.98200  0.64360  0.97280  Biso   1.000  C
  H4       1.0000 0.03380  0.64400  0.93210  Biso   1.000  H
  C5       1.0000 0.14840  0.53120  0.46490  Biso   1.000  C
  H5       1.0000 0.12800  0.47400  0.46950  Biso   1.000  H
  C6       1.0000 0.16180  0.65670  0.48020  Biso   1.000  C
  H6       1.0000 0.15150  0.70770  0.50150  Biso   1.000  H
  C7       1.0000 0.35240  0.17700  0.08690  Biso   1.000  C
  C8       1.0000 0.27540  0.22700  0.08120  Biso   1.000  C
  H7       1.0000 0.20480  0.20570  0.05960  Biso   1.000  H
  C9       1.0000 0.30470  0.30950  0.10800  Biso   1.000  C
  H8       1.0000 0.25350  0.34390  0.10470  Biso   1.000  H
  C10      1.0000 0.41130  0.34110  0.13990  Biso   1.000  C
  C11      1.0000 0.48480  0.28920  0.14650  Biso   1.000  C
  H9       1.0000 0.55490  0.30960  0.16940  Biso   1.000  H
  C12      1.0000 0.45670  0.20680  0.11970  Biso   1.000  C
  H10      1.0000 0.50750  0.17220  0.12370  Biso   1.000  H
  C13      1.0000 0.74740  0.55700  0.07820  Biso   1.000  C
  C14      1.0000 0.67900  0.49940  0.02840  Biso   1.000  C
  H11      1.0000 0.69970  0.48990  0.97550  Biso   1.000  H
  C15      1.0000 0.58040  0.45620  0.05680  Biso   1.000  C
  H12      1.0000 0.53490  0.41690  0.02300  Biso   1.000  H
  C16      1.0000 0.54660  0.47010  0.13610  Biso   1.000  C
  C17      1.0000 0.61980  0.52580  0.18630  Biso   1.000  C
  H13      1.0000 0.60080  0.53420  0.23970  Biso   1.000  H
  C18      1.0000 0.72040  0.56890  0.15800  Biso   1.000  C
  H14      1.0000 0.76910  0.60530  0.19230  Biso   1.000  H
  C19      1.0000 0.27220  0.53230  0.34490  Biso   1.000  C
  C20      1.0000 0.32730  0.58110  0.28740  Biso   1.000  C
  H15      1.0000 0.32770  0.63770  0.28900  Biso   1.000  H
  C21      1.0000 0.38260  0.54670  0.22700  Biso   1.000  C
  H16      1.0000 0.41870  0.58020  0.18730  Biso   1.000  H
  C22      1.0000 0.38490  0.46290  0.22490  Biso   1.000  C
  C23      1.0000 0.32880  0.41400  0.28340  Biso   1.000  C
  H17      1.0000 0.32780  0.35730  0.28210  Biso   1.000  H
  C24      1.0000 0.27410  0.44900  0.34350  Biso   1.000  C
  H18      1.0000 0.23820  0.41600  0.38360  Biso   1.000  H
  C25      1.0000 0.73240  0.49610  0.36750  Biso   1.000  C
  H19      1.0000 0.79580  0.48490  0.34260  Biso   1.000  H
  C26      1.0000 0.61700  0.55470  0.42070  Biso   1.000  C
  H20      1.0000 0.58220  0.59640  0.44070  Biso   1.000  H
  C27      1.0000 0.09410  0.82890  0.37900  Biso   1.000  C
  H21      1.0000 0.12650  0.79020  0.35070  Biso   1.000  H
  C28      1.0000 0.98180  0.88950  0.43800  Biso   1.000  C
  H22      1.0000 0.91570  0.89950  0.45960  Biso   1.000  H
  C29      1.0000 0.92230  0.91630  0.13520  Biso   1.000  C
  H23      1.0000 0.86660  0.90820  0.09570  Biso   1.000  H
  C30      1.0000 0.06900  0.91730  0.19860  Biso   1.000  C
  H24      1.0000 0.13960  0.90860  0.21120  Biso   1.000  H
  C31      1.0000 0.62800  0.35020  0.37560  Biso   1.000  C
  C32      1.0000 0.55710  0.30070  0.42610  Biso   1.000  C
  H25      1.0000 0.52040  0.32500  0.46640  Biso   1.000  H
  C33      1.0000 0.53980  0.21500  0.41730  Biso   1.000  C
  H26      1.0000 0.49240  0.18200  0.45210  Biso   1.000  H
  C34      1.0000 0.59330  0.17830  0.35650  Biso   1.000  C
  C35      1.0000 0.66470  0.22930  0.30640  Biso   1.000  C
  H27      1.0000 0.70090  0.20550  0.26550  Biso   1.000  H
  C36      1.0000 0.68280  0.31480  0.31610  Biso   1.000  C
  H28      1.0000 0.73180  0.34820  0.28250  Biso   1.000  H
  C37      1.0000 0.46700  0.04090  0.35780  Biso   1.000  C
  C38      1.0000 0.37260  0.06800  0.33290  Biso   1.000  C
  H29      1.0000 0.37950  0.11710  0.30580  Biso   1.000  H
  C39      1.0000 0.26780  0.02120  0.34890  Biso   1.000  C
  H30      1.0000 0.20410  0.03970  0.33400  Biso   1.000  H
  C40      1.0000 0.25890  0.94790  0.38680  Biso   1.000  C
  C41      1.0000 0.35180  0.91880  0.40900  Biso   1.000  C
  H31      1.0000 0.34440  0.86810  0.43340  Biso   1.000  H
  C42      1.0000 0.45630  0.96580  0.39470  Biso   1.000  C
  H32      1.0000 0.51960  0.94690  0.40980  Biso   1.000  H
  C43      1.0000 0.65790  0.05390  0.31130  Biso   1.000  C
  C44      1.0000 0.64030  0.00690  0.23950  Biso   1.000  C
  H33      1.0000 0.57110  0.99810  0.21390  Biso   1.000  H
  C45      1.0000 0.72510  0.97280  0.20520  Biso   1.000  C
  H34      1.0000 0.71250  0.94100  0.15720  Biso   1.000  H
  C46      1.0000 0.82710  0.98640  0.24280  Biso   1.000  C
  C47      1.0000 0.84770  0.03270  0.31440  Biso   1.000  C
  H35      1.0000 0.91730  0.04150  0.33950  Biso   1.000  H
  C48      1.0000 0.76210  0.06570  0.34810  Biso   1.000  C
  H36      1.0000 0.77480  0.09650  0.39660  Biso   1.000  H
  C49      1.0000 0.03450  0.83250  0.87180  Biso   1.000  C
  C50      1.0000 0.86060  0.72490  0.55130  Biso   1.000  C
  C51      1.0000 0.98660  0.80380  0.78910  Biso   1.000  C
  C52      1.0000 0.89560  0.83060  0.75910  Biso   1.000  C
  H37      1.0000 0.86230  0.86700  0.78980  Biso   1.000  H
  C53      1.0000 0.85420  0.80320  0.68300  Biso   1.000  C
  H38      1.0000 0.79240  0.82110  0.66330  Biso   1.000  H
  C54      1.0000 0.90270  0.74970  0.63570  Biso   1.000  C
  C55      1.0000 0.99360  0.72230  0.66600  Biso   1.000  C
  H39      1.0000 0.02650  0.68580  0.63500  Biso   1.000  H
  C56      1.0000 0.03550  0.74870  0.74200  Biso   1.000  C
  H40      1.0000 0.09650  0.72980  0.76200  Biso   1.000  H
  N1       1.0000 0.23700  0.96570  0.02740  Biso   1.000  N
  N2       1.0000 0.40460  0.05140  0.03360  Biso   1.000  N
  N3       1.0000 0.32380  0.09200  0.05860  Biso   1.000  N
  N4       1.0000 0.84740  0.60660  0.04850  Biso   1.000  N
  N5       1.0000 0.89960  0.58050  0.98250  Biso   1.000  N
  N6       1.0000 0.98640  0.70890  0.02680  Biso   1.000  N
  N7       1.0000 0.21430  0.56780  0.40770  Biso   1.000  N
  N8       1.0000 0.11550  0.58560  0.51390  Biso   1.000  N
  N9       1.0000 0.22180  0.65190  0.41650  Biso   1.000  N
  N10      1.0000 0.44380  0.42720  0.16290  Biso   1.000  N
  N11      1.0000 0.71800  0.57130  0.38810  Biso   1.000  N
  N12      1.0000 0.64610  0.43900  0.38650  Biso   1.000  N
  N13      1.0000 0.56980  0.47530  0.42270  Biso   1.000  N
  N14      1.0000 0.14820  0.90400  0.40420  Biso   1.000  N
  N15      1.0000 0.98830  0.81630  0.39940  Biso   1.000  N
  N16      1.0000 0.07450  0.94470  0.44260  Biso   1.000  N
  N17      1.0000 0.91490  0.95250  0.20720  Biso   1.000  N
  N18      1.0000 0.01770  0.89350  0.12670  Biso   1.000  N
  N19      1.0000 0.01070  0.95380  0.24880  Biso   1.000  N
  N20      1.0000 0.57380  0.09090  0.34590  Biso   1.000  N
  O1       1.0000 0.12130  0.80790  0.89310  Biso   1.000  O
  O2       1.0000 0.98460  0.87480  0.91740  Biso   1.000  O
  O3       1.0000 0.78920  0.75820  0.52120  Biso   1.000  O
  O4       1.0000 0.90480  0.67350  0.51240  Biso   1.000  O
  Cd3      1.0000 0.88298  0.16513  0.97213  Biso   1.000  Cd
  Cd4      1.0000 0.15926  0.29857  0.61229  Biso   1.000  Cd
  C57      1.0000 0.65250  0.02340  0.98520  Biso   1.000  C
  H41      1.0000 0.61930  0.06570  0.00570  Biso   1.000  H
  C58      1.0000 0.77540  0.96000  0.94580  Biso   1.000  C
  H42      1.0000 0.84290  0.94600  0.93210  Biso   1.000  H
  C59      1.0000 0.10130  0.31720  0.92750  Biso   1.000  C
  H43      1.0000 0.12370  0.28640  0.88480  Biso   1.000  H
  C60      1.0000 0.01800  0.35640  0.02720  Biso   1.000  C
  H44      1.0000 0.96620  0.35600  0.06790  Biso   1.000  H
  C61      1.0000 0.85160  0.46880  0.53510  Biso   1.000  C
  H45      1.0000 0.87200  0.52600  0.53050  Biso   1.000  H
  C62      1.0000 0.83820  0.34330  0.51980  Biso   1.000  C
  H46      1.0000 0.84850  0.29230  0.49850  Biso   1.000  H
  C63      1.0000 0.64760  0.82300  0.91310  Biso   1.000  C
  C64      1.0000 0.72460  0.77300  0.91880  Biso   1.000  C
  H47      1.0000 0.79520  0.79430  0.94040  Biso   1.000  H
  C65      1.0000 0.69530  0.69050  0.89200  Biso   1.000  C
  H48      1.0000 0.74650  0.65610  0.89530  Biso   1.000  H
  C66      1.0000 0.58870  0.65890  0.86010  Biso   1.000  C
  C67      1.0000 0.51520  0.71080  0.85350  Biso   1.000  C
  H49      1.0000 0.44510  0.69040  0.83060  Biso   1.000  H
  C68      1.0000 0.54330  0.79320  0.88030  Biso   1.000  C
  H50      1.0000 0.49250  0.82780  0.87630  Biso   1.000  H
  C69      1.0000 0.25260  0.44300  0.92180  Biso   1.000  C
  C70      1.0000 0.32100  0.50060  0.97160  Biso   1.000  C
  H51      1.0000 0.30030  0.51010  0.02450  Biso   1.000  H
  C71      1.0000 0.41960  0.54380  0.94320  Biso   1.000  C
  H52      1.0000 0.46510  0.58310  0.97700  Biso   1.000  H
  C72      1.0000 0.45340  0.52990  0.86390  Biso   1.000  C
  C73      1.0000 0.38020  0.47420  0.81370  Biso   1.000  C
  H53      1.0000 0.39920  0.46580  0.76030  Biso   1.000  H
  C74      1.0000 0.27960  0.43110  0.84200  Biso   1.000  C
  H54      1.0000 0.23090  0.39470  0.80770  Biso   1.000  H
  C75      1.0000 0.72780  0.46770  0.65510  Biso   1.000  C
  C76      1.0000 0.67270  0.41890  0.71260  Biso   1.000  C
  H55      1.0000 0.67230  0.36230  0.71100  Biso   1.000  H
  C77      1.0000 0.61740  0.45330  0.77300  Biso   1.000  C
  H56      1.0000 0.58130  0.41980  0.81270  Biso   1.000  H
  C78      1.0000 0.61510  0.53710  0.77510  Biso   1.000  C
  C79      1.0000 0.67120  0.58600  0.71660  Biso   1.000  C
  H57      1.0000 0.67220  0.64270  0.71790  Biso   1.000  H
  C80      1.0000 0.72590  0.55100  0.65650  Biso   1.000  C
  H58      1.0000 0.76180  0.58400  0.61640  Biso   1.000  H
  C81      1.0000 0.26760  0.50390  0.63250  Biso   1.000  C
  H59      1.0000 0.20420  0.51510  0.65740  Biso   1.000  H
  C82      1.0000 0.38300  0.44530  0.57930  Biso   1.000  C
  H60      1.0000 0.41780  0.40360  0.55930  Biso   1.000  H
  C83      1.0000 0.90590  0.17110  0.62100  Biso   1.000  C
  H61      1.0000 0.87350  0.20980  0.64930  Biso   1.000  H
  C84      1.0000 0.01820  0.11050  0.56200  Biso   1.000  C
  H62      1.0000 0.08430  0.10050  0.54040  Biso   1.000  H
  C85      1.0000 0.07770  0.08370  0.86480  Biso   1.000  C
  H63      1.0000 0.13340  0.09180  0.90430  Biso   1.000  H
  C86      1.0000 0.93100  0.08270  0.80140  Biso   1.000  C
  H64      1.0000 0.86040  0.09140  0.78880  Biso   1.000  H
  C87      1.0000 0.37200  0.64980  0.62440  Biso   1.000  C
  C88      1.0000 0.44290  0.69930  0.57390  Biso   1.000  C
  H65      1.0000 0.47960  0.67500  0.53360  Biso   1.000  H
  C89      1.0000 0.46020  0.78500  0.58270  Biso   1.000  C
  H66      1.0000 0.50760  0.81800  0.54790  Biso   1.000  H
  C90      1.0000 0.40670  0.82170  0.64350  Biso   1.000  C
  C91      1.0000 0.33530  0.77070  0.69360  Biso   1.000  C
  H67      1.0000 0.29910  0.79450  0.73450  Biso   1.000  H
  C92      1.0000 0.31720  0.68520  0.68390  Biso   1.000  C
  H68      1.0000 0.26820  0.65180  0.71750  Biso   1.000  H
  C93      1.0000 0.53300  0.95910  0.64220  Biso   1.000  C
  C94      1.0000 0.62740  0.93200  0.66710  Biso   1.000  C
  H69      1.0000 0.62050  0.88290  0.69420  Biso   1.000  H
  C95      1.0000 0.73220  0.97880  0.65110  Biso   1.000  C
  H70      1.0000 0.79590  0.96030  0.66600  Biso   1.000  H
  C96      1.0000 0.74110  0.05210  0.61320  Biso   1.000  C
  C97      1.0000 0.64820  0.08120  0.59100  Biso   1.000  C
  H71      1.0000 0.65560  0.13190  0.56660  Biso   1.000  H
  C98      1.0000 0.54370  0.03420  0.60530  Biso   1.000  C
  H72      1.0000 0.48040  0.05310  0.59020  Biso   1.000  H
  C99      1.0000 0.34210  0.94610  0.68870  Biso   1.000  C
  C100     1.0000 0.35970  0.99310  0.76050  Biso   1.000  C
  H73      1.0000 0.42890  0.00190  0.78610  Biso   1.000  H
  C101     1.0000 0.27490  0.02720  0.79480  Biso   1.000  C
  H74      1.0000 0.28750  0.05900  0.84280  Biso   1.000  H
  C102     1.0000 0.17290  0.01360  0.75720  Biso   1.000  C
  C103     1.0000 0.15230  0.96730  0.68560  Biso   1.000  C
  H75      1.0000 0.08270  0.95850  0.66050  Biso   1.000  H
  C104     1.0000 0.23790  0.93430  0.65190  Biso   1.000  C
  H76      1.0000 0.22520  0.90350  0.60340  Biso   1.000  H
  C105     1.0000 0.96550  0.16750  0.12820  Biso   1.000  C
  C106     1.0000 0.13940  0.27510  0.44870  Biso   1.000  C
  C107     1.0000 0.01340  0.19620  0.21090  Biso   1.000  C
  C108     1.0000 0.10440  0.16940  0.24090  Biso   1.000  C
  H77      1.0000 0.13770  0.13300  0.21020  Biso   1.000  H
  C109     1.0000 0.14580  0.19680  0.31700  Biso   1.000  C
  H78      1.0000 0.20760  0.17890  0.33670  Biso   1.000  H
  C110     1.0000 0.09730  0.25030  0.36430  Biso   1.000  C
  C111     1.0000 0.00640  0.27770  0.33400  Biso   1.000  C
  H79      1.0000 0.97350  0.31420  0.36500  Biso   1.000  H
  C112     1.0000 0.96450  0.25130  0.25800  Biso   1.000  C
  H80      1.0000 0.90350  0.27020  0.23800  Biso   1.000  H
  N21      1.0000 0.76300  0.03430  0.97260  Biso   1.000  N
  N22      1.0000 0.59540  0.94860  0.96640  Biso   1.000  N
  N23      1.0000 0.67620  0.90800  0.94140  Biso   1.000  N
  N24      1.0000 0.15260  0.39340  0.95150  Biso   1.000  N
  N25      1.0000 0.10040  0.41950  0.01750  Biso   1.000  N
  N26      1.0000 0.01360  0.29110  0.97320  Biso   1.000  N
  N27      1.0000 0.78570  0.43220  0.59230  Biso   1.000  N
  N28      1.0000 0.88450  0.41440  0.48610  Biso   1.000  N
  N29      1.0000 0.77820  0.34810  0.58350  Biso   1.000  N
  N30      1.0000 0.55620  0.57280  0.83710  Biso   1.000  N
  N31      1.0000 0.28200  0.42870  0.61190  Biso   1.000  N
  N32      1.0000 0.35390  0.56100  0.61350  Biso   1.000  N
  N33      1.0000 0.43020  0.52470  0.57730  Biso   1.000  N
  N34      1.0000 0.85180  0.09600  0.59580  Biso   1.000  N
  N35      1.0000 0.01170  0.18370  0.60060  Biso   1.000  N
  N36      1.0000 0.92550  0.05530  0.55740  Biso   1.000  N
  N37      1.0000 0.08510  0.04750  0.79280  Biso   1.000  N
  N38      1.0000 0.98230  0.10650  0.87330  Biso   1.000  N
  N39      1.0000 0.98930  0.04620  0.75120  Biso   1.000  N
  N40      1.0000 0.42620  0.90910  0.65410  Biso   1.000  N
  O5       1.0000 0.87870  0.19210  0.10690  Biso   1.000  O
  O6       1.0000 0.01540  0.12520  0.08260  Biso   1.000  O
  O7       1.0000 0.21080  0.24180  0.47880  Biso   1.000  O
  O8       1.0000 0.09520  0.32650  0.48760  Biso   1.000  O
