data_image0
_cell_length_a       15.2321
_cell_length_b       11.482
_cell_length_c       13.4913
_cell_angle_alpha    90
_cell_angle_beta     114.52
_cell_angle_gamma    90

_symmetry_space_group_name_H-M    "P 1"
_symmetry_int_tables_number       1

loop_
  _symmetry_equiv_pos_as_xyz
  'x, y, z'

loop_
  _atom_site_label
  _atom_site_occupancy
  _atom_site_fract_x
  _atom_site_fract_y
  _atom_site_fract_z
  _atom_site_thermal_displace_type
  _atom_site_B_iso_or_equiv
  _atom_site_type_symbol
  Bi1      1.0000 0.57574  0.52979  0.82574  Biso   1.000  Bi
  O1       1.0000 0.47780  0.41190  0.67700  Biso   1.000  O
  O2       1.0000 0.45710  0.23070  0.61510  Biso   1.000  O
  O3       1.0000 0.59760  0.33410  0.87680  Biso   1.000  O
  O4       1.0000 0.56030  0.15240  0.81700  Biso   1.000  O
  O5       1.0000 0.44010  0.49410  0.85830  Biso   1.000  O
  O6       1.0000 0.38180  0.47290  0.98340  Biso   1.000  O
  C1       1.0000 0.48980  0.30420  0.68820  Biso   1.000  C
  C2       1.0000 0.55280  0.25890  0.80290  Biso   1.000  C
  C3       1.0000 0.44950  0.49070  0.95490  Biso   1.000  C
  Bi2      1.0000 0.42426  0.47021  0.17426  Biso   1.000  Bi
  O7       1.0000 0.52220  0.58810  0.32300  Biso   1.000  O
  O8       1.0000 0.54290  0.76930  0.38490  Biso   1.000  O
  O9       1.0000 0.40240  0.66590  0.12320  Biso   1.000  O
  O10      1.0000 0.43970  0.84760  0.18300  Biso   1.000  O
  O11      1.0000 0.55990  0.50590  0.14170  Biso   1.000  O
  O12      1.0000 0.61820  0.52710  0.01660  Biso   1.000  O
  C4       1.0000 0.51020  0.69580  0.31180  Biso   1.000  C
  C5       1.0000 0.44720  0.74110  0.19710  Biso   1.000  C
  C6       1.0000 0.55050  0.50930  0.04510  Biso   1.000  C
  Bi3      1.0000 0.42426  0.02979  0.67426  Biso   1.000  Bi
  O13      1.0000 0.52220  0.91190  0.82300  Biso   1.000  O
  O14      1.0000 0.54290  0.73070  0.88490  Biso   1.000  O
  O15      1.0000 0.40240  0.83410  0.62320  Biso   1.000  O
  O16      1.0000 0.43970  0.65240  0.68300  Biso   1.000  O
  O17      1.0000 0.55990  0.99410  0.64170  Biso   1.000  O
  O18      1.0000 0.61820  0.97290  0.51660  Biso   1.000  O
  C7       1.0000 0.51020  0.80420  0.81180  Biso   1.000  C
  C8       1.0000 0.44720  0.75890  0.69710  Biso   1.000  C
  C9       1.0000 0.55050  0.99070  0.54510  Biso   1.000  C
  Bi4      1.0000 0.57574  0.97021  0.32574  Biso   1.000  Bi
  O19      1.0000 0.47780  0.08810  0.17700  Biso   1.000  O
  O20      1.0000 0.45710  0.26930  0.11510  Biso   1.000  O
  O21      1.0000 0.59760  0.16590  0.37680  Biso   1.000  O
  O22      1.0000 0.56030  0.34760  0.31700  Biso   1.000  O
  O23      1.0000 0.44010  0.00590  0.35830  Biso   1.000  O
  O24      1.0000 0.38180  0.02710  0.48340  Biso   1.000  O
  C10      1.0000 0.48980  0.19580  0.18820  Biso   1.000  C
  C11      1.0000 0.55280  0.24110  0.30290  Biso   1.000  C
  C12      1.0000 0.44950  0.00930  0.45490  Biso   1.000  C
  C13      1.0000 0.13360  0.45770  0.56650  Biso   1.000  C
  H1       1.0000 0.09400  0.47870  0.49140  Biso   1.000  H
  H2       1.0000 0.09770  0.47730  0.60910  Biso   1.000  H
  C14      1.0000 0.22290  0.52890  0.60600  Biso   1.000  C
  H3       1.0000 0.26670  0.50030  0.67810  Biso   1.000  H
  C15      1.0000 0.19860  0.65250  0.61660  Biso   1.000  C
  H4       1.0000 0.15820  0.68290  0.54600  Biso   1.000  H
  H5       1.0000 0.25690  0.69750  0.64770  Biso   1.000  H
  H6       1.0000 0.16500  0.65690  0.66300  Biso   1.000  H
  N1       1.0000 0.15000  0.32870  0.57260  Biso   1.000  N
  H7       1.0000 0.09340  0.29210  0.54480  Biso   1.000  H
  H8       1.0000 0.18260  0.30760  0.64180  Biso   1.000  H
  H9       1.0000 0.18380  0.30980  0.53470  Biso   1.000  H
  N2       1.0000 0.27440  0.52210  0.53100  Biso   1.000  N
  H10      1.0000 0.28320  0.44780  0.51870  Biso   1.000  H
  H11      1.0000 0.33130  0.55750  0.56210  Biso   1.000  H
  H12      1.0000 0.23880  0.55700  0.46810  Biso   1.000  H
  C16      1.0000 0.86640  0.95770  0.93350  Biso   1.000  C
  H13      1.0000 0.90600  0.97870  0.00860  Biso   1.000  H
  H14      1.0000 0.90230  0.97730  0.89090  Biso   1.000  H
  C17      1.0000 0.77710  0.02890  0.89400  Biso   1.000  C
  H15      1.0000 0.73330  0.00030  0.82190  Biso   1.000  H
  C18      1.0000 0.80140  0.15250  0.88340  Biso   1.000  C
  H16      1.0000 0.84180  0.18290  0.95400  Biso   1.000  H
  H17      1.0000 0.74310  0.19750  0.85230  Biso   1.000  H
  H18      1.0000 0.83500  0.15690  0.83700  Biso   1.000  H
  N3       1.0000 0.85000  0.82870  0.92740  Biso   1.000  N
  H19      1.0000 0.90660  0.79210  0.95520  Biso   1.000  H
  H20      1.0000 0.81740  0.80760  0.85820  Biso   1.000  H
  H21      1.0000 0.81620  0.80980  0.96530  Biso   1.000  H
  N4       1.0000 0.72560  0.02210  0.96900  Biso   1.000  N
  H22      1.0000 0.71680  0.94780  0.98130  Biso   1.000  H
  H23      1.0000 0.66870  0.05750  0.93790  Biso   1.000  H
  H24      1.0000 0.76120  0.05700  0.03190  Biso   1.000  H
  C19      1.0000 0.86640  0.54230  0.43350  Biso   1.000  C
  H25      1.0000 0.90600  0.52130  0.50860  Biso   1.000  H
  H26      1.0000 0.90230  0.52270  0.39090  Biso   1.000  H
  C20      1.0000 0.77710  0.47110  0.39400  Biso   1.000  C
  H27      1.0000 0.73330  0.49970  0.32190  Biso   1.000  H
  C21      1.0000 0.80140  0.34750  0.38340  Biso   1.000  C
  H28      1.0000 0.84180  0.31710  0.45400  Biso   1.000  H
  H29      1.0000 0.74310  0.30250  0.35230  Biso   1.000  H
  H30      1.0000 0.83500  0.34310  0.33700  Biso   1.000  H
  N5       1.0000 0.85000  0.67130  0.42740  Biso   1.000  N
  H31      1.0000 0.90660  0.70790  0.45520  Biso   1.000  H
  H32      1.0000 0.81740  0.69240  0.35820  Biso   1.000  H
  H33      1.0000 0.81620  0.69020  0.46530  Biso   1.000  H
  N6       1.0000 0.72560  0.47790  0.46900  Biso   1.000  N
  H34      1.0000 0.71680  0.55220  0.48130  Biso   1.000  H
  H35      1.0000 0.66870  0.44250  0.43790  Biso   1.000  H
  H36      1.0000 0.76120  0.44300  0.53190  Biso   1.000  H
  C22      1.0000 0.13360  0.04230  0.06650  Biso   1.000  C
  H37      1.0000 0.09400  0.02130  0.99140  Biso   1.000  H
  H38      1.0000 0.09770  0.02270  0.10910  Biso   1.000  H
  C23      1.0000 0.22290  0.97110  0.10600  Biso   1.000  C
  H39      1.0000 0.26670  0.99970  0.17810  Biso   1.000  H
  C24      1.0000 0.19860  0.84750  0.11660  Biso   1.000  C
  H40      1.0000 0.15820  0.81710  0.04600  Biso   1.000  H
  H41      1.0000 0.25690  0.80250  0.14770  Biso   1.000  H
  H42      1.0000 0.16500  0.84310  0.16300  Biso   1.000  H
  N7       1.0000 0.15000  0.17130  0.07260  Biso   1.000  N
  H43      1.0000 0.09340  0.20790  0.04480  Biso   1.000  H
  H44      1.0000 0.18260  0.19240  0.14180  Biso   1.000  H
  H45      1.0000 0.18380  0.19020  0.03470  Biso   1.000  H
  N8       1.0000 0.27440  0.97790  0.03100  Biso   1.000  N
  H46      1.0000 0.28320  0.05220  0.01870  Biso   1.000  H
  H47      1.0000 0.33130  0.94250  0.06210  Biso   1.000  H
  H48      1.0000 0.23880  0.94300  0.96810  Biso   1.000  H
  Bi5      1.0000 0.99498  0.49949  0.83174  Biso   1.000  Bi
  O25      1.0000 0.00530  0.70660  0.87910  Biso   1.000  O
  O26      1.0000 0.01930  0.88240  0.82020  Biso   1.000  O
  O27      1.0000 0.97060  0.61820  0.68110  Biso   1.000  O
  O28      1.0000 0.99500  0.79150  0.62610  Biso   1.000  O
  C25      1.0000 0.00720  0.77530  0.80900  Biso   1.000  C
  C26      1.0000 0.98900  0.72420  0.69530  Biso   1.000  C
  Bi6      1.0000 0.00502  0.99949  0.66826  Biso   1.000  Bi
  O29      1.0000 0.99470  0.20660  0.62090  Biso   1.000  O
  O30      1.0000 0.98070  0.38240  0.67980  Biso   1.000  O
  O31      1.0000 0.02940  0.11820  0.81890  Biso   1.000  O
  O32      1.0000 0.00500  0.29150  0.87390  Biso   1.000  O
  C27      1.0000 0.99280  0.27530  0.69100  Biso   1.000  C
  C28      1.0000 0.01100  0.22420  0.80470  Biso   1.000  C
  Bi7      1.0000 0.00502  0.50051  0.16826  Biso   1.000  Bi
  O33      1.0000 0.99470  0.29340  0.12090  Biso   1.000  O
  O34      1.0000 0.98070  0.11760  0.17980  Biso   1.000  O
  O35      1.0000 0.02940  0.38180  0.31890  Biso   1.000  O
  O36      1.0000 0.00500  0.20850  0.37390  Biso   1.000  O
  C29      1.0000 0.99280  0.22470  0.19100  Biso   1.000  C
  C30      1.0000 0.01100  0.27580  0.30470  Biso   1.000  C
  Bi8      1.0000 0.99498  0.00051  0.33174  Biso   1.000  Bi
  O37      1.0000 0.00530  0.79340  0.37910  Biso   1.000  O
  O38      1.0000 0.01930  0.61760  0.32020  Biso   1.000  O
  O39      1.0000 0.97060  0.88180  0.18110  Biso   1.000  O
  O40      1.0000 0.99500  0.70850  0.12610  Biso   1.000  O
  C31      1.0000 0.00720  0.72470  0.30900  Biso   1.000  C
  C32      1.0000 0.98900  0.77580  0.19530  Biso   1.000  C
