data_image0
_cell_length_a       7.9993
_cell_length_b       11.2241
_cell_length_c       16.2302
_cell_angle_alpha    90
_cell_angle_beta     96.836
_cell_angle_gamma    90

_symmetry_space_group_name_H-M    "P 1"
_symmetry_int_tables_number       1

loop_
  _symmetry_equiv_pos_as_xyz
  'x, y, z'

loop_
  _atom_site_label
  _atom_site_occupancy
  _atom_site_fract_x
  _atom_site_fract_y
  _atom_site_fract_z
  _atom_site_thermal_displace_type
  _atom_site_B_iso_or_equiv
  _atom_site_type_symbol
  Ag1      1.0000 0.18565  0.29198  0.14133  Biso   1.000  Ag
  Ag2      1.0000 0.25617  0.13327  0.30738  Biso   1.000  Ag
  Ag3      1.0000 0.31635  0.38427  0.31839  Biso   1.000  Ag
  Ag4      1.0000 0.60485  0.21773  0.35607  Biso   1.000  Ag
  C1       1.0000 0.85320  0.26740  0.02040  Biso   1.000  C
  H1       1.0000 0.93250  0.27290  0.98300  Biso   1.000  H
  C2       1.0000 0.79420  0.28040  0.15440  Biso   1.000  C
  H2       1.0000 0.82830  0.29660  0.21010  Biso   1.000  H
  C3       1.0000 0.57970  0.23650  0.04320  Biso   1.000  C
  H3       1.0000 0.46910  0.21740  0.02330  Biso   1.000  H
  C4       1.0000 0.62330  0.25500  0.12810  Biso   1.000  C
  C5       1.0000 0.50170  0.24950  0.18490  Biso   1.000  C
  C6       1.0000 0.41160  0.24690  0.23930  Biso   1.000  C
  N1       1.0000 0.90690  0.28150  0.10050  Biso   1.000  N
  N2       1.0000 0.69540  0.24600  0.98990  Biso   1.000  N
  Ag5      1.0000 0.18565  0.20802  0.64133  Biso   1.000  Ag
  Ag6      1.0000 0.25617  0.36673  0.80738  Biso   1.000  Ag
  Ag7      1.0000 0.31635  0.11573  0.81839  Biso   1.000  Ag
  Ag8      1.0000 0.60485  0.28227  0.85607  Biso   1.000  Ag
  C7       1.0000 0.85320  0.23260  0.52040  Biso   1.000  C
  H4       1.0000 0.93250  0.22710  0.48300  Biso   1.000  H
  C8       1.0000 0.79420  0.21960  0.65440  Biso   1.000  C
  H5       1.0000 0.82830  0.20340  0.71010  Biso   1.000  H
  C9       1.0000 0.57970  0.26350  0.54320  Biso   1.000  C
  H6       1.0000 0.46910  0.28260  0.52330  Biso   1.000  H
  C10      1.0000 0.62330  0.24500  0.62810  Biso   1.000  C
  C11      1.0000 0.50170  0.25050  0.68490  Biso   1.000  C
  C12      1.0000 0.41160  0.25310  0.73930  Biso   1.000  C
  N3       1.0000 0.90690  0.21850  0.60050  Biso   1.000  N
  N4       1.0000 0.69540  0.25400  0.48990  Biso   1.000  N
  Ag9      1.0000 0.81435  0.79198  0.35867  Biso   1.000  Ag
  Ag10     1.0000 0.74383  0.63327  0.19262  Biso   1.000  Ag
  Ag11     1.0000 0.68365  0.88427  0.18161  Biso   1.000  Ag
  Ag12     1.0000 0.39515  0.71773  0.14393  Biso   1.000  Ag
  C13      1.0000 0.14680  0.76740  0.47960  Biso   1.000  C
  H7       1.0000 0.06750  0.77290  0.51700  Biso   1.000  H
  C14      1.0000 0.20580  0.78040  0.34560  Biso   1.000  C
  H8       1.0000 0.17170  0.79660  0.28990  Biso   1.000  H
  C15      1.0000 0.42030  0.73650  0.45680  Biso   1.000  C
  H9       1.0000 0.53090  0.71740  0.47670  Biso   1.000  H
  C16      1.0000 0.37670  0.75500  0.37190  Biso   1.000  C
  C17      1.0000 0.49830  0.74950  0.31510  Biso   1.000  C
  C18      1.0000 0.58840  0.74690  0.26070  Biso   1.000  C
  N5       1.0000 0.09310  0.78150  0.39950  Biso   1.000  N
  N6       1.0000 0.30460  0.74600  0.51010  Biso   1.000  N
  Ag13     1.0000 0.81435  0.70802  0.85867  Biso   1.000  Ag
  Ag14     1.0000 0.74383  0.86673  0.69262  Biso   1.000  Ag
  Ag15     1.0000 0.68365  0.61573  0.68161  Biso   1.000  Ag
  Ag16     1.0000 0.39515  0.78227  0.64393  Biso   1.000  Ag
  C19      1.0000 0.14680  0.73260  0.97960  Biso   1.000  C
  H10      1.0000 0.06750  0.72710  0.01700  Biso   1.000  H
  C20      1.0000 0.20580  0.71960  0.84560  Biso   1.000  C
  H11      1.0000 0.17170  0.70340  0.78990  Biso   1.000  H
  C21      1.0000 0.42030  0.76350  0.95680  Biso   1.000  C
  H12      1.0000 0.53090  0.78260  0.97670  Biso   1.000  H
  C22      1.0000 0.37670  0.74500  0.87190  Biso   1.000  C
  C23      1.0000 0.49830  0.75050  0.81510  Biso   1.000  C
  C24      1.0000 0.58840  0.75310  0.76070  Biso   1.000  C
  N7       1.0000 0.09310  0.71850  0.89950  Biso   1.000  N
  N8       1.0000 0.30460  0.75400  0.01010  Biso   1.000  N
