data_image0
_cell_length_a       17.537
_cell_length_b       12.938
_cell_length_c       13.328
_cell_angle_alpha    90
_cell_angle_beta     93.78
_cell_angle_gamma    90

_symmetry_space_group_name_H-M    "P 1"
_symmetry_int_tables_number       1

loop_
  _symmetry_equiv_pos_as_xyz
  'x, y, z'

loop_
  _atom_site_label
  _atom_site_occupancy
  _atom_site_fract_x
  _atom_site_fract_y
  _atom_site_fract_z
  _atom_site_thermal_displace_type
  _atom_site_B_iso_or_equiv
  _atom_site_type_symbol
  S1       1.0000 0.23060  0.31566  0.27952  Biso   1.000  S
  N1       1.0000 0.04939  0.13030  0.06260  Biso   1.000  N
  N2       1.0000 0.10612  0.23650  0.17140  Biso   1.000  N
  N3       1.0000 0.39338  0.44790  0.51230  Biso   1.000  N
  N4       1.0000 0.27863  0.39080  0.46370  Biso   1.000  N
  C1       1.0000 0.07282  0.14320  0.15720  Biso   1.000  C
  H1       1.0000 0.06720  0.09470  0.20770  Biso   1.000  H
  C2       1.0000 0.06950  0.21760  0.01280  Biso   1.000  C
  H2       1.0000 0.06110  0.22890  0.94410  Biso   1.000  H
  C3       1.0000 0.10340  0.28450  0.07870  Biso   1.000  C
  H3       1.0000 0.12150  0.35010  0.06470  Biso   1.000  H
  C4       1.0000 0.13580  0.27850  0.26450  Biso   1.000  C
  C5       1.0000 0.09900  0.28890  0.34880  Biso   1.000  C
  H4       1.0000 0.04780  0.27230  0.35340  Biso   1.000  H
  C6       1.0000 0.14680  0.32800  0.43080  Biso   1.000  C
  H5       1.0000 0.13090  0.33960  0.49500  Biso   1.000  H
  C7       1.0000 0.21790  0.34590  0.40300  Biso   1.000  C
  C8       1.0000 0.35183  0.39810  0.43980  Biso   1.000  C
  H6       1.0000 0.37080  0.37210  0.38130  Biso   1.000  H
  C9       1.0000 0.34350  0.47310  0.58460  Biso   1.000  C
  H7       1.0000 0.35640  0.50940  0.64350  Biso   1.000  H
  C10      1.0000 0.27240  0.43650  0.55620  Biso   1.000  C
  H8       1.0000 0.22870  0.44140  0.59190  Biso   1.000  H
  S2       1.0000 0.26940  0.81566  0.22048  Biso   1.000  S
  N5       1.0000 0.45061  0.63030  0.43740  Biso   1.000  N
  N6       1.0000 0.39388  0.73650  0.32860  Biso   1.000  N
  N7       1.0000 0.10662  0.94790  0.98770  Biso   1.000  N
  N8       1.0000 0.22137  0.89080  0.03630  Biso   1.000  N
  C11      1.0000 0.42718  0.64320  0.34280  Biso   1.000  C
  H9       1.0000 0.43280  0.59470  0.29230  Biso   1.000  H
  C12      1.0000 0.43050  0.71760  0.48720  Biso   1.000  C
  H10      1.0000 0.43890  0.72890  0.55590  Biso   1.000  H
  C13      1.0000 0.39660  0.78450  0.42130  Biso   1.000  C
  H11      1.0000 0.37850  0.85010  0.43530  Biso   1.000  H
  C14      1.0000 0.36420  0.77850  0.23550  Biso   1.000  C
  C15      1.0000 0.40100  0.78890  0.15120  Biso   1.000  C
  H12      1.0000 0.45220  0.77230  0.14660  Biso   1.000  H
  C16      1.0000 0.35320  0.82800  0.06920  Biso   1.000  C
  H13      1.0000 0.36910  0.83960  0.00500  Biso   1.000  H
  C17      1.0000 0.28210  0.84590  0.09700  Biso   1.000  C
  C18      1.0000 0.14817  0.89810  0.06020  Biso   1.000  C
  H14      1.0000 0.12920  0.87210  0.11870  Biso   1.000  H
  C19      1.0000 0.15650  0.97310  0.91540  Biso   1.000  C
  H15      1.0000 0.14360  0.00940  0.85650  Biso   1.000  H
  C20      1.0000 0.22760  0.93650  0.94380  Biso   1.000  C
  H16      1.0000 0.27130  0.94140  0.90810  Biso   1.000  H
  S3       1.0000 0.76940  0.68434  0.72048  Biso   1.000  S
  N9       1.0000 0.95061  0.86970  0.93740  Biso   1.000  N
  N10      1.0000 0.89388  0.76350  0.82860  Biso   1.000  N
  N11      1.0000 0.60662  0.55210  0.48770  Biso   1.000  N
  N12      1.0000 0.72137  0.60920  0.53630  Biso   1.000  N
  C21      1.0000 0.92718  0.85680  0.84280  Biso   1.000  C
  H17      1.0000 0.93280  0.90530  0.79230  Biso   1.000  H
  C22      1.0000 0.93050  0.78240  0.98720  Biso   1.000  C
  H18      1.0000 0.93890  0.77110  0.05590  Biso   1.000  H
  C23      1.0000 0.89660  0.71550  0.92130  Biso   1.000  C
  H19      1.0000 0.87850  0.64990  0.93530  Biso   1.000  H
  C24      1.0000 0.86420  0.72150  0.73550  Biso   1.000  C
  C25      1.0000 0.90100  0.71110  0.65120  Biso   1.000  C
  H20      1.0000 0.95220  0.72770  0.64660  Biso   1.000  H
  C26      1.0000 0.85320  0.67200  0.56920  Biso   1.000  C
  H21      1.0000 0.86910  0.66040  0.50500  Biso   1.000  H
  C27      1.0000 0.78210  0.65410  0.59700  Biso   1.000  C
  C28      1.0000 0.64817  0.60190  0.56020  Biso   1.000  C
  H22      1.0000 0.62920  0.62790  0.61870  Biso   1.000  H
  C29      1.0000 0.65650  0.52690  0.41540  Biso   1.000  C
  H23      1.0000 0.64360  0.49060  0.35650  Biso   1.000  H
  C30      1.0000 0.72760  0.56350  0.44380  Biso   1.000  C
  H24      1.0000 0.77130  0.55860  0.40810  Biso   1.000  H
  S4       1.0000 0.73060  0.18434  0.77952  Biso   1.000  S
  N13      1.0000 0.54939  0.36970  0.56260  Biso   1.000  N
  N14      1.0000 0.60612  0.26350  0.67140  Biso   1.000  N
  N15      1.0000 0.89338  0.05210  0.01230  Biso   1.000  N
  N16      1.0000 0.77863  0.10920  0.96370  Biso   1.000  N
  C31      1.0000 0.57282  0.35680  0.65720  Biso   1.000  C
  H25      1.0000 0.56720  0.40530  0.70770  Biso   1.000  H
  C32      1.0000 0.56950  0.28240  0.51280  Biso   1.000  C
  H26      1.0000 0.56110  0.27110  0.44410  Biso   1.000  H
  C33      1.0000 0.60340  0.21550  0.57870  Biso   1.000  C
  H27      1.0000 0.62150  0.14990  0.56470  Biso   1.000  H
  C34      1.0000 0.63580  0.22150  0.76450  Biso   1.000  C
  C35      1.0000 0.59900  0.21110  0.84880  Biso   1.000  C
  H28      1.0000 0.54780  0.22770  0.85340  Biso   1.000  H
  C36      1.0000 0.64680  0.17200  0.93080  Biso   1.000  C
  H29      1.0000 0.63090  0.16040  0.99500  Biso   1.000  H
  C37      1.0000 0.71790  0.15410  0.90300  Biso   1.000  C
  C38      1.0000 0.85183  0.10190  0.93980  Biso   1.000  C
  H30      1.0000 0.87080  0.12790  0.88130  Biso   1.000  H
  C39      1.0000 0.84350  0.02690  0.08460  Biso   1.000  C
  H31      1.0000 0.85640  0.99060  0.14350  Biso   1.000  H
  C40      1.0000 0.77240  0.06350  0.05620  Biso   1.000  C
  H32      1.0000 0.72870  0.05860  0.09190  Biso   1.000  H
  Cu1      1.0000 0.00000  0.00000  0.00000  Biso   1.000  Cu
  Cu2      1.0000 0.50000  0.50000  0.50000  Biso   1.000  Cu
  S5       1.0000 0.73060  0.81566  0.27952  Biso   1.000  S
  N17      1.0000 0.54939  0.63030  0.06260  Biso   1.000  N
  N18      1.0000 0.60612  0.73650  0.17140  Biso   1.000  N
  N19      1.0000 0.89338  0.94790  0.51230  Biso   1.000  N
  N20      1.0000 0.77863  0.89080  0.46370  Biso   1.000  N
  C41      1.0000 0.57282  0.64320  0.15720  Biso   1.000  C
  H33      1.0000 0.56720  0.59470  0.20770  Biso   1.000  H
  C42      1.0000 0.56950  0.71760  0.01280  Biso   1.000  C
  H34      1.0000 0.56110  0.72890  0.94410  Biso   1.000  H
  C43      1.0000 0.60340  0.78450  0.07870  Biso   1.000  C
  H35      1.0000 0.62150  0.85010  0.06470  Biso   1.000  H
  C44      1.0000 0.63580  0.77850  0.26450  Biso   1.000  C
  C45      1.0000 0.59900  0.78890  0.34880  Biso   1.000  C
  H36      1.0000 0.54780  0.77230  0.35340  Biso   1.000  H
  C46      1.0000 0.64680  0.82800  0.43080  Biso   1.000  C
  H37      1.0000 0.63090  0.83960  0.49500  Biso   1.000  H
  C47      1.0000 0.71790  0.84590  0.40300  Biso   1.000  C
  C48      1.0000 0.85183  0.89810  0.43980  Biso   1.000  C
  H38      1.0000 0.87080  0.87210  0.38130  Biso   1.000  H
  C49      1.0000 0.84350  0.97310  0.58460  Biso   1.000  C
  H39      1.0000 0.85640  0.00940  0.64350  Biso   1.000  H
  C50      1.0000 0.77240  0.93650  0.55620  Biso   1.000  C
  H40      1.0000 0.72870  0.94140  0.59190  Biso   1.000  H
  S6       1.0000 0.76940  0.31566  0.22048  Biso   1.000  S
  N21      1.0000 0.95061  0.13030  0.43740  Biso   1.000  N
  N22      1.0000 0.89388  0.23650  0.32860  Biso   1.000  N
  N23      1.0000 0.60662  0.44790  0.98770  Biso   1.000  N
  N24      1.0000 0.72137  0.39080  0.03630  Biso   1.000  N
  C51      1.0000 0.92718  0.14320  0.34280  Biso   1.000  C
  H41      1.0000 0.93280  0.09470  0.29230  Biso   1.000  H
  C52      1.0000 0.93050  0.21760  0.48720  Biso   1.000  C
  H42      1.0000 0.93890  0.22890  0.55590  Biso   1.000  H
  C53      1.0000 0.89660  0.28450  0.42130  Biso   1.000  C
  H43      1.0000 0.87850  0.35010  0.43530  Biso   1.000  H
  C54      1.0000 0.86420  0.27850  0.23550  Biso   1.000  C
  C55      1.0000 0.90100  0.28890  0.15120  Biso   1.000  C
  H44      1.0000 0.95220  0.27230  0.14660  Biso   1.000  H
  C56      1.0000 0.85320  0.32800  0.06920  Biso   1.000  C
  H45      1.0000 0.86910  0.33960  0.00500  Biso   1.000  H
  C57      1.0000 0.78210  0.34590  0.09700  Biso   1.000  C
  C58      1.0000 0.64817  0.39810  0.06020  Biso   1.000  C
  H46      1.0000 0.62920  0.37210  0.11870  Biso   1.000  H
  C59      1.0000 0.65650  0.47310  0.91540  Biso   1.000  C
  H47      1.0000 0.64360  0.50940  0.85650  Biso   1.000  H
  C60      1.0000 0.72760  0.43650  0.94380  Biso   1.000  C
  H48      1.0000 0.77130  0.44140  0.90810  Biso   1.000  H
  S7       1.0000 0.26940  0.18434  0.72048  Biso   1.000  S
  N25      1.0000 0.45061  0.36970  0.93740  Biso   1.000  N
  N26      1.0000 0.39388  0.26350  0.82860  Biso   1.000  N
  N27      1.0000 0.10662  0.05210  0.48770  Biso   1.000  N
  N28      1.0000 0.22137  0.10920  0.53630  Biso   1.000  N
  C61      1.0000 0.42718  0.35680  0.84280  Biso   1.000  C
  H49      1.0000 0.43280  0.40530  0.79230  Biso   1.000  H
  C62      1.0000 0.43050  0.28240  0.98720  Biso   1.000  C
  H50      1.0000 0.43890  0.27110  0.05590  Biso   1.000  H
  C63      1.0000 0.39660  0.21550  0.92130  Biso   1.000  C
  H51      1.0000 0.37850  0.14990  0.93530  Biso   1.000  H
  C64      1.0000 0.36420  0.22150  0.73550  Biso   1.000  C
  C65      1.0000 0.40100  0.21110  0.65120  Biso   1.000  C
  H52      1.0000 0.45220  0.22770  0.64660  Biso   1.000  H
  C66      1.0000 0.35320  0.17200  0.56920  Biso   1.000  C
  H53      1.0000 0.36910  0.16040  0.50500  Biso   1.000  H
  C67      1.0000 0.28210  0.15410  0.59700  Biso   1.000  C
  C68      1.0000 0.14817  0.10190  0.56020  Biso   1.000  C
  H54      1.0000 0.12920  0.12790  0.61870  Biso   1.000  H
  C69      1.0000 0.15650  0.02690  0.41540  Biso   1.000  C
  H55      1.0000 0.14360  0.99060  0.35650  Biso   1.000  H
  C70      1.0000 0.22760  0.06350  0.44380  Biso   1.000  C
  H56      1.0000 0.27130  0.05860  0.40810  Biso   1.000  H
  S8       1.0000 0.23060  0.68434  0.77952  Biso   1.000  S
  N29      1.0000 0.04939  0.86970  0.56260  Biso   1.000  N
  N30      1.0000 0.10612  0.76350  0.67140  Biso   1.000  N
  N31      1.0000 0.39338  0.55210  0.01230  Biso   1.000  N
  N32      1.0000 0.27863  0.60920  0.96370  Biso   1.000  N
  C71      1.0000 0.07282  0.85680  0.65720  Biso   1.000  C
  H57      1.0000 0.06720  0.90530  0.70770  Biso   1.000  H
  C72      1.0000 0.06950  0.78240  0.51280  Biso   1.000  C
  H58      1.0000 0.06110  0.77110  0.44410  Biso   1.000  H
  C73      1.0000 0.10340  0.71550  0.57870  Biso   1.000  C
  H59      1.0000 0.12150  0.64990  0.56470  Biso   1.000  H
  C74      1.0000 0.13580  0.72150  0.76450  Biso   1.000  C
  C75      1.0000 0.09900  0.71110  0.84880  Biso   1.000  C
  H60      1.0000 0.04780  0.72770  0.85340  Biso   1.000  H
  C76      1.0000 0.14680  0.67200  0.93080  Biso   1.000  C
  H61      1.0000 0.13090  0.66040  0.99500  Biso   1.000  H
  C77      1.0000 0.21790  0.65410  0.90300  Biso   1.000  C
  C78      1.0000 0.35183  0.60190  0.93980  Biso   1.000  C
  H62      1.0000 0.37080  0.62790  0.88130  Biso   1.000  H
  C79      1.0000 0.34350  0.52690  0.08460  Biso   1.000  C
  H63      1.0000 0.35640  0.49060  0.14350  Biso   1.000  H
  C80      1.0000 0.27240  0.56350  0.05620  Biso   1.000  C
  H64      1.0000 0.22870  0.55860  0.09190  Biso   1.000  H
  Cu3      1.0000 0.50000  0.50000  0.00000  Biso   1.000  Cu
  Cu4      1.0000 0.00000  0.00000  0.50000  Biso   1.000  Cu
