data_image0
_cell_length_a       5.8163
_cell_length_b       13.9064
_cell_length_c       8.5949
_cell_angle_alpha    90
_cell_angle_beta     94.758
_cell_angle_gamma    90

_symmetry_space_group_name_H-M    "P 1"
_symmetry_int_tables_number       1

loop_
  _symmetry_equiv_pos_as_xyz
  'x, y, z'

loop_
  _atom_site_label
  _atom_site_occupancy
  _atom_site_fract_x
  _atom_site_fract_y
  _atom_site_fract_z
  _atom_site_thermal_displace_type
  _atom_site_B_iso_or_equiv
  _atom_site_type_symbol
  U1       1.0000 0.01917  0.50916  0.65661  Biso   1.000  U
  O1       1.0000 0.30710  0.50780  0.88520  Biso   1.000  O
  O2       1.0000 0.31930  0.62780  0.72180  Biso   1.000  O
  O3       1.0000 0.02170  0.63550  0.45180  Biso   1.000  O
  O4       1.0000 0.74920  0.52760  0.42360  Biso   1.000  O
  O5       1.0000 0.27510  0.88470  0.37440  Biso   1.000  O
  O6       1.0000 0.06280  0.87960  0.15260  Biso   1.000  O
  C1       1.0000 0.49330  0.65430  0.98140  Biso   1.000  C
  H1       1.0000 0.60520  0.69720  0.93280  Biso   1.000  H
  C2       1.0000 0.62250  0.59580  0.11180  Biso   1.000  C
  H2       1.0000 0.51510  0.54940  0.15480  Biso   1.000  H
  H3       1.0000 0.74780  0.55880  0.06840  Biso   1.000  H
  C3       1.0000 0.72480  0.66120  0.24250  Biso   1.000  C
  H4       1.0000 0.84210  0.70410  0.19960  Biso   1.000  H
  C4       1.0000 0.53750  0.72430  0.30840  Biso   1.000  C
  H5       1.0000 0.42570  0.68300  0.35790  Biso   1.000  H
  H6       1.0000 0.60950  0.76830  0.38890  Biso   1.000  H
  C5       1.0000 0.41190  0.78300  0.17630  Biso   1.000  C
  H7       1.0000 0.53070  0.82300  0.12890  Biso   1.000  H
  C6       1.0000 0.30480  0.71660  0.04780  Biso   1.000  C
  H8       1.0000 0.22600  0.75570  0.96310  Biso   1.000  H
  H9       1.0000 0.18840  0.67460  0.09100  Biso   1.000  H
  C7       1.0000 0.37420  0.59180  0.85710  Biso   1.000  C
  C8       1.0000 0.84050  0.60440  0.37780  Biso   1.000  C
  C9       1.0000 0.23760  0.85140  0.23640  Biso   1.000  C
  U2       1.0000 0.98083  0.00916  0.34339  Biso   1.000  U
  O7       1.0000 0.69290  0.00780  0.11480  Biso   1.000  O
  O8       1.0000 0.68070  0.12780  0.27820  Biso   1.000  O
  O9       1.0000 0.97830  0.13550  0.54820  Biso   1.000  O
  O10      1.0000 0.25080  0.02760  0.57640  Biso   1.000  O
  O11      1.0000 0.72490  0.38470  0.62560  Biso   1.000  O
  O12      1.0000 0.93720  0.37960  0.84740  Biso   1.000  O
  C10      1.0000 0.50670  0.15430  0.01860  Biso   1.000  C
  H10      1.0000 0.39480  0.19720  0.06720  Biso   1.000  H
  C11      1.0000 0.37750  0.09580  0.88820  Biso   1.000  C
  H11      1.0000 0.48490  0.04940  0.84520  Biso   1.000  H
  H12      1.0000 0.25220  0.05880  0.93160  Biso   1.000  H
  C12      1.0000 0.27520  0.16120  0.75750  Biso   1.000  C
  H13      1.0000 0.15790  0.20410  0.80040  Biso   1.000  H
  C13      1.0000 0.46250  0.22430  0.69160  Biso   1.000  C
  H14      1.0000 0.57430  0.18300  0.64210  Biso   1.000  H
  H15      1.0000 0.39050  0.26830  0.61110  Biso   1.000  H
  C14      1.0000 0.58810  0.28300  0.82370  Biso   1.000  C
  H16      1.0000 0.46930  0.32300  0.87110  Biso   1.000  H
  C15      1.0000 0.69520  0.21660  0.95220  Biso   1.000  C
  H17      1.0000 0.77400  0.25570  0.03690  Biso   1.000  H
  H18      1.0000 0.81160  0.17460  0.90900  Biso   1.000  H
  C16      1.0000 0.62580  0.09180  0.14290  Biso   1.000  C
  C17      1.0000 0.15950  0.10440  0.62220  Biso   1.000  C
  C18      1.0000 0.76240  0.35140  0.76360  Biso   1.000  C
