data_GOWVOF_clean
_audit_creation_date              2015-10-16
_audit_creation_method            'Materials Studio'
_symmetry_space_group_name_H-M    'P1'
_symmetry_Int_Tables_number       1
_symmetry_cell_setting            triclinic
loop_
_symmetry_equiv_pos_as_xyz
  x,y,z
_cell_length_a                    8.9246
_cell_length_b                    11.0620
_cell_length_c                    12.4900
_cell_angle_alpha                 96.3620
_cell_angle_beta                  91.3340
_cell_angle_gamma                 97.6850
loop_
_atom_site_label
_atom_site_type_symbol
_atom_site_fract_x
_atom_site_fract_y
_atom_site_fract_z
_atom_site_U_iso_or_equiv
_atom_site_adp_type
_atom_site_occupancy
Cd1    Cd    0.47588   0.75203   0.78179   0.01267  Uiso   1.00
Cd2    Cd    0.52412   0.24797   0.21821   0.01267  Uiso   1.00
H1     H     0.99680   0.03760   0.61230   0.01267  Uiso   1.00
H2     H     0.35700   0.36010   0.54300   0.01267  Uiso   1.00
H3     H     0.64600   0.77940   0.44330   0.01267  Uiso   1.00
H4     H     0.05170   0.82720   0.70370   0.01267  Uiso   1.00
H5     H     0.40860   0.61240   0.15310   0.01267  Uiso   1.00
H6     H     0.52800   0.71580   0.51760   0.01267  Uiso   1.00
H7     H     0.29170   0.53360   0.21800   0.01267  Uiso   1.00
H8     H     0.80070   0.45630   0.11260   0.01267  Uiso   1.00
H9     H     0.98530   0.37520   0.01100   0.01267  Uiso   1.00
H10    H     0.00320   0.96240   0.38770   0.01267  Uiso   1.00
H11    H     0.62130   0.81580   0.04020   0.01267  Uiso   1.00
H12    H     0.14970   0.22000   0.17760   0.01267  Uiso   1.00
H13    H     0.27670   0.62430   0.99000   0.01267  Uiso   1.00
H14    H     0.01470   0.62480   0.98900   0.01267  Uiso   1.00
H15    H     0.06960   0.57070   0.09120   0.01267  Uiso   1.00
H16    H     0.37870   0.18420   0.95980   0.01267  Uiso   1.00
H17    H     0.35400   0.22060   0.55670   0.01267  Uiso   1.00
H18    H     0.76780   0.68710   0.13790   0.01267  Uiso   1.00
H19    H     0.85030   0.78000   0.82240   0.01267  Uiso   1.00
H20    H     0.59140   0.38760   0.84690   0.01267  Uiso   1.00
H21    H     0.07620   0.81200   0.49750   0.01267  Uiso   1.00
H22    H     0.85350   0.96280   0.45110   0.01267  Uiso   1.00
H23    H     0.46390   0.51950   0.22620   0.01267  Uiso   1.00
H24    H     0.94830   0.17280   0.29630   0.01267  Uiso   1.00
H25    H     0.53610   0.48050   0.77380   0.01267  Uiso   1.00
H26    H     0.93370   0.76190   0.42190   0.01267  Uiso   1.00
H27    H     0.23220   0.31290   0.86210   0.01267  Uiso   1.00
H28    H     0.92380   0.18800   0.50250   0.01267  Uiso   1.00
H29    H     0.19930   0.54370   0.88740   0.01267  Uiso   1.00
H30    H     0.14650   0.03720   0.54890   0.01267  Uiso   1.00
H31    H     0.70830   0.46640   0.78200   0.01267  Uiso   1.00
H32    H     0.64300   0.63990   0.45700   0.01267  Uiso   1.00
H33    H     0.47200   0.28420   0.48240   0.01267  Uiso   1.00
H34    H     0.72330   0.37570   0.01000   0.01267  Uiso   1.00
H35    H     0.93040   0.42930   0.90880   0.01267  Uiso   1.00
H36    H     0.06630   0.23810   0.57810   0.01267  Uiso   1.00
C1     C     0.26140   0.24810   0.41400   0.01267  Uiso   1.00
C2     C     0.95020   0.80320   0.68360   0.01267  Uiso   1.00
C3     C     0.92130   0.97720   0.09000   0.01267  Uiso   1.00
C4     C     0.84010   0.77710   0.74780   0.01267  Uiso   1.00
C5     C     0.04980   0.19680   0.31640   0.01267  Uiso   1.00
C6     C     0.07870   0.02280   0.91000   0.01267  Uiso   1.00
C7     C     0.04620   0.91820   0.06380   0.01267  Uiso   1.00
C8     C     0.38330   0.53410   0.17910   0.01267  Uiso   1.00
C9     C     0.87200   0.06070   0.02710   0.01267  Uiso   1.00
C10    C     0.36120   0.43590   0.08640   0.01267  Uiso   1.00
C11    C     0.63950   0.73690   0.01540   0.01267  Uiso   1.00
C12    C     0.78960   0.45090   0.03470   0.01267  Uiso   1.00
C13    C     0.37070   0.28110   0.50730   0.01267  Uiso   1.00
C14    C     0.73300   0.12400   0.05580   0.01267  Uiso   1.00
C15    C     0.63880   0.56410   0.91360   0.01267  Uiso   1.00
C16    C     0.02930   0.18020   0.51610   0.01267  Uiso   1.00
C17    C     0.15990   0.22290   0.25220   0.01267  Uiso   1.00
C18    C     0.05590   0.55530   0.01340   0.01267  Uiso   1.00
C19    C     0.12800   0.93930   0.97290   0.01267  Uiso   1.00
C20    C     0.94410   0.44470   0.98660   0.01267  Uiso   1.00
C21    C     0.95380   0.08180   0.93620   0.01267  Uiso   1.00
C22    C     0.26700   0.87600   0.94420   0.01267  Uiso   1.00
C23    C     0.62930   0.71890   0.49270   0.01267  Uiso   1.00
C24    C     0.04080   0.04840   0.54310   0.01267  Uiso   1.00
C25    C     0.21040   0.54910   0.96530   0.01267  Uiso   1.00
C26    C     0.73860   0.75190   0.58600   0.01267  Uiso   1.00
C27    C     0.97070   0.81980   0.48390   0.01267  Uiso   1.00
C28    C     0.72040   0.66590   0.07000   0.01267  Uiso   1.00
C29    C     0.27960   0.33410   0.93000   0.01267  Uiso   1.00
C30    C     0.61670   0.46590   0.82090   0.01267  Uiso   1.00
C31    C     0.36050   0.26310   0.98460   0.01267  Uiso   1.00
C32    C     0.95920   0.95160   0.45690   0.01267  Uiso   1.00
N1     N     0.70010   0.74290   0.68490   0.01267  Uiso   1.00
N2     N     0.41100   0.32730   0.08300   0.01267  Uiso   1.00
N3     N     0.71830   0.55680   0.00550   0.01267  Uiso   1.00
N4     N     0.58900   0.67270   0.91700   0.01267  Uiso   1.00
N5     N     0.88560   0.78810   0.57700   0.01267  Uiso   1.00
N6     N     0.11440   0.21190   0.42300   0.01267  Uiso   1.00
N7     N     0.29990   0.25710   0.31510   0.01267  Uiso   1.00
N8     N     0.28170   0.44320   0.99450   0.01267  Uiso   1.00
O1     O     0.62820   0.10880   0.98810   0.01267  Uiso   1.00
O2     O     0.37180   0.89120   0.01190   0.01267  Uiso   1.00
O3     O     0.74000   0.18670   0.14550   0.01267  Uiso   1.00
O4     O     0.26000   0.81330   0.85450   0.01267  Uiso   1.00
F1     F     0.91420   0.16250   0.87080   0.01267  Uiso   1.00
F2     F     0.08580   0.83750   0.12920   0.01267  Uiso   1.00
F3     F     0.15390   0.05060   0.82170   0.01267  Uiso   1.00
F4     F     0.84610   0.94940   0.17830   0.01267  Uiso   1.00
