data_image0
_cell_length_a       6.6909
_cell_length_b       20.042
_cell_length_c       9.6608
_cell_angle_alpha    90
_cell_angle_beta     96.357
_cell_angle_gamma    90

_symmetry_space_group_name_H-M    "P 1"
_symmetry_int_tables_number       1

loop_
  _symmetry_equiv_pos_as_xyz
  'x, y, z'

loop_
  _atom_site_label
  _atom_site_occupancy
  _atom_site_fract_x
  _atom_site_fract_y
  _atom_site_fract_z
  _atom_site_thermal_displace_type
  _atom_site_B_iso_or_equiv
  _atom_site_type_symbol
  Ag1      1.0000 0.75895  0.32936  0.64440  Biso   1.000  Ag
  Ag2      1.0000 0.70693  0.69822  0.77742  Biso   1.000  Ag
  C1       1.0000 0.74050  0.48910  0.59150  Biso   1.000  C
  C2       1.0000 0.72240  0.47520  0.82440  Biso   1.000  C
  H1       1.0000 0.72000  0.44790  0.90210  Biso   1.000  H
  C3       1.0000 0.71000  0.54469  0.84110  Biso   1.000  C
  H2       1.0000 0.70130  0.56190  0.92960  Biso   1.000  H
  C4       1.0000 0.72490  0.55896  0.60640  Biso   1.000  C
  C5       1.0000 0.72660  0.60167  0.48720  Biso   1.000  C
  H3       1.0000 0.71490  0.64760  0.49750  Biso   1.000  H
  C6       1.0000 0.74520  0.57547  0.35910  Biso   1.000  C
  H4       1.0000 0.74580  0.60370  0.28280  Biso   1.000  H
  C7       1.0000 0.76390  0.50507  0.34080  Biso   1.000  C
  C8       1.0000 0.76090  0.46146  0.45560  Biso   1.000  C
  C9       1.0000 0.80080  0.37175  0.31610  Biso   1.000  C
  H5       1.0000 0.81360  0.32610  0.30250  Biso   1.000  H
  C10      1.0000 0.80560  0.41537  0.20190  Biso   1.000  C
  H6       1.0000 0.82330  0.39710  0.11560  Biso   1.000  H
  N1       1.0000 0.73750  0.44725  0.70170  Biso   1.000  N
  N2       1.0000 0.71020  0.58642  0.73470  Biso   1.000  N
  N3       1.0000 0.77840  0.39443  0.44220  Biso   1.000  N
  N4       1.0000 0.78630  0.48064  0.21100  Biso   1.000  N
  Ag3      1.0000 0.24105  0.82936  0.85560  Biso   1.000  Ag
  Ag4      1.0000 0.29307  0.19822  0.72258  Biso   1.000  Ag
  C11      1.0000 0.25950  0.98910  0.90850  Biso   1.000  C
  C12      1.0000 0.27760  0.97520  0.67560  Biso   1.000  C
  H7       1.0000 0.28000  0.94790  0.59790  Biso   1.000  H
  C13      1.0000 0.29000  0.04469  0.65890  Biso   1.000  C
  H8       1.0000 0.29870  0.06190  0.57040  Biso   1.000  H
  C14      1.0000 0.27510  0.05896  0.89360  Biso   1.000  C
  C15      1.0000 0.27340  0.10167  0.01280  Biso   1.000  C
  H9       1.0000 0.28510  0.14760  0.00250  Biso   1.000  H
  C16      1.0000 0.25480  0.07547  0.14090  Biso   1.000  C
  H10      1.0000 0.25420  0.10370  0.21720  Biso   1.000  H
  C17      1.0000 0.23610  0.00507  0.15920  Biso   1.000  C
  C18      1.0000 0.23910  0.96146  0.04440  Biso   1.000  C
  C19      1.0000 0.19920  0.87175  0.18390  Biso   1.000  C
  H11      1.0000 0.18640  0.82610  0.19750  Biso   1.000  H
  C20      1.0000 0.19440  0.91537  0.29810  Biso   1.000  C
  H12      1.0000 0.17670  0.89710  0.38440  Biso   1.000  H
  N5       1.0000 0.26250  0.94725  0.79830  Biso   1.000  N
  N6       1.0000 0.28980  0.08642  0.76530  Biso   1.000  N
  N7       1.0000 0.22160  0.89443  0.05780  Biso   1.000  N
  N8       1.0000 0.21370  0.98064  0.28900  Biso   1.000  N
  Ag5      1.0000 0.24105  0.67064  0.35560  Biso   1.000  Ag
  Ag6      1.0000 0.29307  0.30178  0.22258  Biso   1.000  Ag
  C21      1.0000 0.25950  0.51090  0.40850  Biso   1.000  C
  C22      1.0000 0.27760  0.52480  0.17560  Biso   1.000  C
  H13      1.0000 0.28000  0.55210  0.09790  Biso   1.000  H
  C23      1.0000 0.29000  0.45531  0.15890  Biso   1.000  C
  H14      1.0000 0.29870  0.43810  0.07040  Biso   1.000  H
  C24      1.0000 0.27510  0.44104  0.39360  Biso   1.000  C
  C25      1.0000 0.27340  0.39833  0.51280  Biso   1.000  C
  H15      1.0000 0.28510  0.35240  0.50250  Biso   1.000  H
  C26      1.0000 0.25480  0.42453  0.64090  Biso   1.000  C
  H16      1.0000 0.25420  0.39630  0.71720  Biso   1.000  H
  C27      1.0000 0.23610  0.49493  0.65920  Biso   1.000  C
  C28      1.0000 0.23910  0.53854  0.54440  Biso   1.000  C
  C29      1.0000 0.19920  0.62825  0.68390  Biso   1.000  C
  H17      1.0000 0.18640  0.67390  0.69750  Biso   1.000  H
  C30      1.0000 0.19440  0.58463  0.79810  Biso   1.000  C
  H18      1.0000 0.17670  0.60290  0.88440  Biso   1.000  H
  N9       1.0000 0.26250  0.55275  0.29830  Biso   1.000  N
  N10      1.0000 0.28980  0.41358  0.26530  Biso   1.000  N
  N11      1.0000 0.22160  0.60557  0.55780  Biso   1.000  N
  N12      1.0000 0.21370  0.51936  0.78900  Biso   1.000  N
  Ag7      1.0000 0.75895  0.17064  0.14440  Biso   1.000  Ag
  Ag8      1.0000 0.70693  0.80178  0.27742  Biso   1.000  Ag
  C31      1.0000 0.74050  0.01090  0.09150  Biso   1.000  C
  C32      1.0000 0.72240  0.02480  0.32440  Biso   1.000  C
  H19      1.0000 0.72000  0.05210  0.40210  Biso   1.000  H
  C33      1.0000 0.71000  0.95531  0.34110  Biso   1.000  C
  H20      1.0000 0.70130  0.93810  0.42960  Biso   1.000  H
  C34      1.0000 0.72490  0.94104  0.10640  Biso   1.000  C
  C35      1.0000 0.72660  0.89833  0.98720  Biso   1.000  C
  H21      1.0000 0.71490  0.85240  0.99750  Biso   1.000  H
  C36      1.0000 0.74520  0.92453  0.85910  Biso   1.000  C
  H22      1.0000 0.74580  0.89630  0.78280  Biso   1.000  H
  C37      1.0000 0.76390  0.99493  0.84080  Biso   1.000  C
  C38      1.0000 0.76090  0.03854  0.95560  Biso   1.000  C
  C39      1.0000 0.80080  0.12825  0.81610  Biso   1.000  C
  H23      1.0000 0.81360  0.17390  0.80250  Biso   1.000  H
  C40      1.0000 0.80560  0.08463  0.70190  Biso   1.000  C
  H24      1.0000 0.82330  0.10290  0.61560  Biso   1.000  H
  N13      1.0000 0.73750  0.05275  0.20170  Biso   1.000  N
  N14      1.0000 0.71020  0.91358  0.23470  Biso   1.000  N
  N15      1.0000 0.77840  0.10557  0.94220  Biso   1.000  N
  N16      1.0000 0.78630  0.01936  0.71100  Biso   1.000  N
