data_image0
_cell_length_a       10.667
_cell_length_b       11.147
_cell_length_c       20.207
_cell_angle_alpha    90.983
_cell_angle_beta     92.15
_cell_angle_gamma    108.128

_symmetry_space_group_name_H-M    "P 1"
_symmetry_int_tables_number       1

loop_
  _symmetry_equiv_pos_as_xyz
  'x, y, z'

loop_
  _atom_site_label
  _atom_site_occupancy
  _atom_site_fract_x
  _atom_site_fract_y
  _atom_site_fract_z
  _atom_site_thermal_displace_type
  _atom_site_B_iso_or_equiv
  _atom_site_type_symbol
  Cu1      1.0000 0.35390  0.10490  0.11734  Biso   1.000  Cu
  N1       1.0000 0.23740  0.17360  0.16590  Biso   1.000  N
  C1       1.0000 0.14000  0.20700  0.13510  Biso   1.000  C
  C2       1.0000 0.11500  0.18200  0.06150  Biso   1.000  C
  H1       1.0000 0.17560  0.13830  0.04510  Biso   1.000  H
  H2       1.0000 0.12990  0.26160  0.03910  Biso   1.000  H
  H3       1.0000 0.02380  0.12810  0.05260  Biso   1.000  H
  C3       1.0000 0.06900  0.26700  0.17250  Biso   1.000  C
  H4       1.0000 0.99680  0.28900  0.15340  Biso   1.000  H
  C4       1.0000 0.20000  0.25760  0.26680  Biso   1.000  C
  C5       1.0000 0.23300  0.29600  0.33570  Biso   1.000  C
  H5       1.0000 0.17190  0.33890  0.35180  Biso   1.000  H
  H6       1.0000 0.32360  0.35460  0.33990  Biso   1.000  H
  H7       1.0000 0.22680  0.22200  0.36220  Biso   1.000  H
  C6       1.0000 0.26500  0.19600  0.22870  Biso   1.000  C
  H8       1.0000 0.33270  0.16830  0.24900  Biso   1.000  H
  N2       1.0000 0.10670  0.29360  0.23530  Biso   1.000  N
  H9       1.0000 0.06710  0.33820  0.25800  Biso   1.000  H
  N3       1.0000 0.43900  0.04800  0.04840  Biso   1.000  N
  C7       1.0000 0.53200  0.12200  0.01370  Biso   1.000  C
  C8       1.0000 0.57400  0.26100  0.02720  Biso   1.000  C
  H10      1.0000 0.52240  0.28030  0.06260  Biso   1.000  H
  H11      1.0000 0.55950  0.30360  0.98690  Biso   1.000  H
  H12      1.0000 0.66800  0.29070  0.04080  Biso   1.000  H
  C9       1.0000 0.59300  0.07500  0.96520  Biso   1.000  C
  H13      1.0000 0.65890  0.13200  0.94080  Biso   1.000  H
  Cu2      1.0000 0.64610  0.89510  0.88266  Biso   1.000  Cu
  N4       1.0000 0.76260  0.82640  0.83410  Biso   1.000  N
  C10      1.0000 0.86000  0.79300  0.86490  Biso   1.000  C
  C11      1.0000 0.88500  0.81800  0.93850  Biso   1.000  C
  H14      1.0000 0.82440  0.86170  0.95490  Biso   1.000  H
  H15      1.0000 0.87010  0.73840  0.96090  Biso   1.000  H
  H16      1.0000 0.97620  0.87190  0.94740  Biso   1.000  H
  C12      1.0000 0.93100  0.73300  0.82750  Biso   1.000  C
  H17      1.0000 0.00320  0.71100  0.84660  Biso   1.000  H
  C13      1.0000 0.80000  0.74240  0.73320  Biso   1.000  C
  C14      1.0000 0.76700  0.70400  0.66430  Biso   1.000  C
  H18      1.0000 0.82810  0.66110  0.64820  Biso   1.000  H
  H19      1.0000 0.67640  0.64540  0.66010  Biso   1.000  H
  H20      1.0000 0.77320  0.77800  0.63780  Biso   1.000  H
  C15      1.0000 0.73500  0.80400  0.77130  Biso   1.000  C
  H21      1.0000 0.66730  0.83170  0.75100  Biso   1.000  H
  N5       1.0000 0.89330  0.70640  0.76470  Biso   1.000  N
  H22      1.0000 0.93290  0.66180  0.74200  Biso   1.000  H
  N6       1.0000 0.56100  0.95200  0.95160  Biso   1.000  N
  C16      1.0000 0.46800  0.87800  0.98630  Biso   1.000  C
  C17      1.0000 0.42600  0.73900  0.97280  Biso   1.000  C
  H23      1.0000 0.47760  0.71970  0.93740  Biso   1.000  H
  H24      1.0000 0.44050  0.69640  0.01310  Biso   1.000  H
  H25      1.0000 0.33200  0.70930  0.95920  Biso   1.000  H
  C18      1.0000 0.40700  0.92500  0.03480  Biso   1.000  C
  H26      1.0000 0.34110  0.86800  0.05920  Biso   1.000  H
  W1       1.0000 0.60491  0.41725  0.82019  Biso   1.000  W
  W2       1.0000 0.24898  0.15572  0.58168  Biso   1.000  W
  W3       1.0000 0.37444  0.59181  0.78613  Biso   1.000  W
  W4       1.0000 0.19439  0.94277  0.70453  Biso   1.000  W
  W5       1.0000 0.22869  0.04852  0.87666  Biso   1.000  W
  W6       1.0000 0.31306  0.36301  0.91636  Biso   1.000  W
  W7       1.0000 0.06787  0.43877  0.71642  Biso   1.000  W
  W8       1.0000 0.97548  0.10490  0.67337  Biso   1.000  W
  W9       1.0000 0.51989  0.10523  0.77894  Biso   1.000  W
  W10      1.0000 0.57367  0.32077  0.65855  Biso   1.000  W
  W11      1.0000 0.00766  0.20813  0.84608  Biso   1.000  W
  W12      1.0000 0.33959  0.49120  0.62514  Biso   1.000  W
  P1       1.0000 0.28710  0.26590  0.74870  Biso   1.000  P
  O1       1.0000 0.43240  0.27250  0.75170  Biso   1.000  O
  O2       1.0000 0.20970  0.16130  0.69930  Biso   1.000  O
  O3       1.0000 0.27240  0.39140  0.72930  Biso   1.000  O
  O4       1.0000 0.23570  0.23580  0.81660  Biso   1.000  O
  O5       1.0000 0.19150  0.57090  0.76690  Biso   1.000  O
  O6       1.0000 0.29500  0.18970  0.93630  Biso   1.000  O
  O7       1.0000 0.66320  0.42120  0.73220  Biso   1.000  O
  O8       1.0000 0.40030  0.61450  0.69680  Biso   1.000  O
  O9       1.0000 0.62410  0.25430  0.82520  Biso   1.000  O
  O10      1.0000 0.60040  0.18250  0.70100  Biso   1.000  O
  O11      1.0000 0.06100  0.07400  0.87990  Biso   1.000  O
  O12      1.0000 0.16820  0.49800  0.64150  Biso   1.000  O
  O13      1.0000 0.02370  0.95740  0.68670  Biso   1.000  O
  O14      1.0000 0.00320  0.28300  0.67440  Biso   1.000  O
  O15      1.0000 0.12440  0.31340  0.91220  Biso   1.000  O
  O16      1.0000 0.06540  0.12080  0.59380  Biso   1.000  O
  O17      1.0000 0.96330  0.11480  0.76560  Biso   1.000  O
  O18      1.0000 0.42760  0.21120  0.61150  Biso   1.000  O
  O19      1.0000 0.02420  0.35300  0.79530  Biso   1.000  O
  O20      1.0000 0.16790  0.96280  0.79550  Biso   1.000  O
  O21      1.0000 0.31910  0.50030  0.86320  Biso   1.000  O
  O22      1.0000 0.37600  0.00590  0.72440  Biso   1.000  O
  O23      1.0000 0.49290  0.44530  0.64180  Biso   1.000  O
  O24      1.0000 0.23790  0.99870  0.61720  Biso   1.000  O
  O25      1.0000 0.26330  0.33070  0.58890  Biso   1.000  O
  O26      1.0000 0.52600  0.53990  0.79420  Biso   1.000  O
  O27      1.0000 0.39990  0.07920  0.84750  Biso   1.000  O
  O28      1.0000 0.48090  0.37780  0.88590  Biso   1.000  O
  W13      1.0000 0.39509  0.58275  0.17981  Biso   1.000  W
  W14      1.0000 0.75102  0.84428  0.41832  Biso   1.000  W
  W15      1.0000 0.62556  0.40819  0.21387  Biso   1.000  W
  W16      1.0000 0.80561  0.05723  0.29547  Biso   1.000  W
  W17      1.0000 0.77131  0.95148  0.12334  Biso   1.000  W
  W18      1.0000 0.68694  0.63699  0.08364  Biso   1.000  W
  W19      1.0000 0.93213  0.56123  0.28358  Biso   1.000  W
  W20      1.0000 0.02452  0.89510  0.32663  Biso   1.000  W
  W21      1.0000 0.48011  0.89477  0.22106  Biso   1.000  W
  W22      1.0000 0.42633  0.67923  0.34145  Biso   1.000  W
  W23      1.0000 0.99234  0.79187  0.15392  Biso   1.000  W
  W24      1.0000 0.66041  0.50880  0.37486  Biso   1.000  W
  P2       1.0000 0.71290  0.73410  0.25130  Biso   1.000  P
  O29      1.0000 0.56760  0.72750  0.24830  Biso   1.000  O
  O30      1.0000 0.79030  0.83870  0.30070  Biso   1.000  O
  O31      1.0000 0.72760  0.60860  0.27070  Biso   1.000  O
  O32      1.0000 0.76430  0.76420  0.18340  Biso   1.000  O
  O33      1.0000 0.80850  0.42910  0.23310  Biso   1.000  O
  O34      1.0000 0.70500  0.81030  0.06370  Biso   1.000  O
  O35      1.0000 0.33680  0.57880  0.26780  Biso   1.000  O
  O36      1.0000 0.59970  0.38550  0.30320  Biso   1.000  O
  O37      1.0000 0.37590  0.74570  0.17480  Biso   1.000  O
  O38      1.0000 0.39960  0.81750  0.29900  Biso   1.000  O
  O39      1.0000 0.93900  0.92600  0.12010  Biso   1.000  O
  O40      1.0000 0.83180  0.50200  0.35850  Biso   1.000  O
  O41      1.0000 0.97630  0.04260  0.31330  Biso   1.000  O
  O42      1.0000 0.99680  0.71700  0.32560  Biso   1.000  O
  O43      1.0000 0.87560  0.68660  0.08780  Biso   1.000  O
  O44      1.0000 0.93460  0.87920  0.40620  Biso   1.000  O
  O45      1.0000 0.03670  0.88520  0.23440  Biso   1.000  O
  O46      1.0000 0.57240  0.78880  0.38850  Biso   1.000  O
  O47      1.0000 0.97580  0.64700  0.20470  Biso   1.000  O
  O48      1.0000 0.83210  0.03720  0.20450  Biso   1.000  O
  O49      1.0000 0.68090  0.49970  0.13680  Biso   1.000  O
  O50      1.0000 0.62400  0.99410  0.27560  Biso   1.000  O
  O51      1.0000 0.50710  0.55470  0.35820  Biso   1.000  O
  O52      1.0000 0.76210  0.00130  0.38280  Biso   1.000  O
  O53      1.0000 0.73670  0.66930  0.41110  Biso   1.000  O
  O54      1.0000 0.47400  0.46010  0.20580  Biso   1.000  O
  O55      1.0000 0.60010  0.92080  0.15250  Biso   1.000  O
  O56      1.0000 0.51910  0.62220  0.11410  Biso   1.000  O
