data_image0
_cell_length_a       7.26
_cell_length_b       11.77
_cell_length_c       13.15
_cell_angle_alpha    74.55
_cell_angle_beta     76.47
_cell_angle_gamma    76.55

_symmetry_space_group_name_H-M    "P 1"
_symmetry_int_tables_number       1

loop_
  _symmetry_equiv_pos_as_xyz
  'x, y, z'

loop_
  _atom_site_label
  _atom_site_occupancy
  _atom_site_fract_x
  _atom_site_fract_y
  _atom_site_fract_z
  _atom_site_thermal_displace_type
  _atom_site_B_iso_or_equiv
  _atom_site_type_symbol
  C1       1.0000 0.04100  0.25160  0.41240  Biso   1.000  C
  H1       1.0000 0.91000  0.27360  0.40330  Biso   1.000  H
  C2       1.0000 0.33900  0.25430  0.41090  Biso   1.000  C
  H2       1.0000 0.46060  0.27730  0.39990  Biso   1.000  H
  C3       1.0000 0.13000  0.46210  0.34880  Biso   1.000  C
  H3       1.0000 0.04430  0.48360  0.29540  Biso   1.000  H
  H4       1.0000 0.25240  0.49020  0.31320  Biso   1.000  H
  C4       1.0000 0.03600  0.92540  0.73790  Biso   1.000  C
  H5       1.0000 0.90490  0.91640  0.76220  Biso   1.000  H
  C5       1.0000 0.32700  0.92820  0.73720  Biso   1.000  C
  H6       1.0000 0.44310  0.92250  0.76080  Biso   1.000  H
  C6       1.0000 0.12500  0.87700  0.91920  Biso   1.000  C
  H7       1.0000 0.24090  0.82330  0.94300  Biso   1.000  H
  H8       1.0000 0.01630  0.83240  0.94580  Biso   1.000  H
  C7       1.0000 0.07700  0.98820  0.96800  Biso   1.000  C
  H9       1.0000 0.16790  0.04050  0.94930  Biso   1.000  H
  N1       1.0000 0.31000  0.15000  0.44690  Biso   1.000  N
  N2       1.0000 0.11700  0.14910  0.44580  Biso   1.000  N
  N3       1.0000 0.16630  0.33490  0.38830  Biso   1.000  N
  N4       1.0000 0.30700  0.95620  0.63250  Biso   1.000  N
  N5       1.0000 0.11800  0.95620  0.63130  Biso   1.000  N
  N6       1.0000 0.15770  0.90960  0.80300  Biso   1.000  N
  C8       1.0000 0.95900  0.74840  0.58760  Biso   1.000  C
  H10      1.0000 0.09000  0.72640  0.59670  Biso   1.000  H
  C9       1.0000 0.66100  0.74570  0.58910  Biso   1.000  C
  H11      1.0000 0.53940  0.72270  0.60010  Biso   1.000  H
  C10      1.0000 0.87000  0.53790  0.65120  Biso   1.000  C
  H12      1.0000 0.95570  0.51640  0.70460  Biso   1.000  H
  H13      1.0000 0.74760  0.50980  0.68680  Biso   1.000  H
  C11      1.0000 0.96400  0.07460  0.26210  Biso   1.000  C
  H14      1.0000 0.09510  0.08360  0.23780  Biso   1.000  H
  C12      1.0000 0.67300  0.07180  0.26280  Biso   1.000  C
  H15      1.0000 0.55690  0.07750  0.23920  Biso   1.000  H
  C13      1.0000 0.87500  0.12300  0.08080  Biso   1.000  C
  H16      1.0000 0.75910  0.17670  0.05700  Biso   1.000  H
  H17      1.0000 0.98370  0.16760  0.05420  Biso   1.000  H
  C14      1.0000 0.92300  0.01180  0.03200  Biso   1.000  C
  H18      1.0000 0.83210  0.95950  0.05070  Biso   1.000  H
  N7       1.0000 0.69000  0.85000  0.55310  Biso   1.000  N
  N8       1.0000 0.88300  0.85090  0.55420  Biso   1.000  N
  N9       1.0000 0.83370  0.66510  0.61170  Biso   1.000  N
  N10      1.0000 0.69300  0.04380  0.36750  Biso   1.000  N
  N11      1.0000 0.88200  0.04380  0.36870  Biso   1.000  N
  N12      1.0000 0.84230  0.09040  0.19700  Biso   1.000  N
  Cu1      1.0000 0.00000  0.00000  0.50000  Biso   1.000  Cu
  Cu2      1.0000 0.50000  0.00000  0.50000  Biso   1.000  Cu
