data_image0
_cell_length_a       10.5666
_cell_length_b       19.798
_cell_length_c       16.86
_cell_angle_alpha    90
_cell_angle_beta     100.173
_cell_angle_gamma    90

_symmetry_space_group_name_H-M    "P 1"
_symmetry_int_tables_number       1

loop_
  _symmetry_equiv_pos_as_xyz
  'x, y, z'

loop_
  _atom_site_label
  _atom_site_occupancy
  _atom_site_fract_x
  _atom_site_fract_y
  _atom_site_fract_z
  _atom_site_thermal_displace_type
  _atom_site_B_iso_or_equiv
  _atom_site_type_symbol
  C1       1.0000 0.40190  0.06090  0.85780  Biso   1.000  C
  C2       1.0000 0.78250  0.09060  0.60480  Biso   1.000  C
  C3       1.0000 0.45960  0.17170  0.60710  Biso   1.000  C
  H1       1.0000 0.53650  0.19530  0.62110  Biso   1.000  H
  C4       1.0000 0.36650  0.19760  0.54610  Biso   1.000  C
  H2       1.0000 0.38080  0.23860  0.52200  Biso   1.000  H
  C5       1.0000 0.25200  0.16290  0.52050  Biso   1.000  C
  C6       1.0000 0.23310  0.10390  0.56340  Biso   1.000  C
  H3       1.0000 0.15630  0.08000  0.55150  Biso   1.000  H
  C7       1.0000 0.33160  0.08180  0.62430  Biso   1.000  C
  H4       1.0000 0.31900  0.04190  0.65100  Biso   1.000  H
  C8       1.0000 0.15240  0.19000  0.45650  Biso   1.000  C
  C9       1.0000 0.13640  0.26000  0.44160  Biso   1.000  C
  H5       1.0000 0.18350  0.29380  0.47180  Biso   1.000  H
  C10      1.0000 0.03790  0.27130  0.37350  Biso   1.000  C
  C11      1.0000 0.98450  0.20910  0.34630  Biso   1.000  C
  C12      1.0000 0.06300  0.15440  0.39710  Biso   1.000  C
  C13      1.0000 0.05280  0.08660  0.38550  Biso   1.000  C
  H6       1.0000 0.11370  0.06080  0.41910  Biso   1.000  H
  C14      1.0000 0.96440  0.04970  0.33070  Biso   1.000  C
  H7       1.0000 0.97610  0.00310  0.33250  Biso   1.000  H
  C15      1.0000 0.86390  0.07200  0.27500  Biso   1.000  C
  H8       1.0000 0.81530  0.03840  0.24540  Biso   1.000  H
  C16      1.0000 0.82350  0.13730  0.25600  Biso   1.000  C
  H9       1.0000 0.74990  0.14130  0.21690  Biso   1.000  H
  C17      1.0000 0.87760  0.19820  0.28740  Biso   1.000  C
  H10      1.0000 0.83570  0.23700  0.26540  Biso   1.000  H
  C18      1.0000 0.99770  0.34120  0.34740  Biso   1.000  C
  C19      1.0000 0.97140  0.35810  0.26590  Biso   1.000  C
  H11      1.0000 0.97180  0.32490  0.22690  Biso   1.000  H
  C20      1.0000 0.94410  0.42600  0.24250  Biso   1.000  C
  H12      1.0000 0.93140  0.43730  0.18810  Biso   1.000  H
  C21      1.0000 0.95830  0.45530  0.37360  Biso   1.000  C
  H13      1.0000 0.95190  0.48880  0.41140  Biso   1.000  H
  C22      1.0000 0.98880  0.39260  0.40180  Biso   1.000  C
  H14      1.0000 0.00360  0.38400  0.45690  Biso   1.000  H
  C23      1.0000 0.84410  0.00570  0.82650  Biso   1.000  C
  H15      1.0000 0.84450  0.98910  0.77500  Biso   1.000  H
  C24      1.0000 0.94160  0.98510  0.88860  Biso   1.000  C
  H16      1.0000 0.00240  0.95370  0.87860  Biso   1.000  H
  C25      1.0000 0.94780  0.01110  0.96440  Biso   1.000  C
  C26      1.0000 0.85430  0.05450  0.97700  Biso   1.000  C
  H17      1.0000 0.85470  0.07340  0.02760  Biso   1.000  H
  C27      1.0000 0.75540  0.07050  0.91070  Biso   1.000  C
  H18      1.0000 0.68940  0.09890  0.91960  Biso   1.000  H
  N1       1.0000 0.47230  0.06980  0.81520  Biso   1.000  N
  N2       1.0000 0.72360  0.08840  0.66060  Biso   1.000  N
  N3       1.0000 0.44430  0.11480  0.64670  Biso   1.000  N
  N4       1.0000 0.75280  0.04680  0.83680  Biso   1.000  N
  N5       1.0000 0.93640  0.47350  0.29590  Biso   1.000  N
  Co1      1.0000 0.59812  0.07783  0.74052  Biso   1.000  Co
  S1       1.0000 0.29540  0.04490  0.91730  Biso   1.000  S
  S2       1.0000 0.86010  0.09421  0.53264  Biso   1.000  S
  C28      1.0000 0.09810  0.56090  0.14220  Biso   1.000  C
  C29      1.0000 0.71750  0.59060  0.39520  Biso   1.000  C
  C30      1.0000 0.04040  0.67170  0.39290  Biso   1.000  C
  H19      1.0000 0.96350  0.69530  0.37890  Biso   1.000  H
  C31      1.0000 0.13350  0.69760  0.45390  Biso   1.000  C
  H20      1.0000 0.11920  0.73860  0.47800  Biso   1.000  H
  C32      1.0000 0.24800  0.66290  0.47950  Biso   1.000  C
  C33      1.0000 0.26690  0.60390  0.43660  Biso   1.000  C
  H21      1.0000 0.34370  0.58000  0.44850  Biso   1.000  H
  C34      1.0000 0.16840  0.58180  0.37570  Biso   1.000  C
  H22      1.0000 0.18100  0.54190  0.34900  Biso   1.000  H
  C35      1.0000 0.34760  0.69000  0.54350  Biso   1.000  C
  C36      1.0000 0.36360  0.76000  0.55840  Biso   1.000  C
  H23      1.0000 0.31650  0.79380  0.52820  Biso   1.000  H
  C37      1.0000 0.46210  0.77130  0.62650  Biso   1.000  C
  C38      1.0000 0.51550  0.70910  0.65370  Biso   1.000  C
  C39      1.0000 0.43700  0.65440  0.60290  Biso   1.000  C
  C40      1.0000 0.44720  0.58660  0.61450  Biso   1.000  C
  H24      1.0000 0.38630  0.56080  0.58090  Biso   1.000  H
  C41      1.0000 0.53560  0.54970  0.66930  Biso   1.000  C
  H25      1.0000 0.52390  0.50310  0.66750  Biso   1.000  H
  C42      1.0000 0.63610  0.57200  0.72500  Biso   1.000  C
  H26      1.0000 0.68470  0.53840  0.75460  Biso   1.000  H
  C43      1.0000 0.67650  0.63730  0.74400  Biso   1.000  C
  H27      1.0000 0.75010  0.64130  0.78310  Biso   1.000  H
  C44      1.0000 0.62240  0.69820  0.71260  Biso   1.000  C
  H28      1.0000 0.66430  0.73700  0.73460  Biso   1.000  H
  C45      1.0000 0.50230  0.84120  0.65260  Biso   1.000  C
  C46      1.0000 0.52860  0.85810  0.73410  Biso   1.000  C
  H29      1.0000 0.52820  0.82490  0.77310  Biso   1.000  H
  C47      1.0000 0.55590  0.92600  0.75750  Biso   1.000  C
  H30      1.0000 0.56860  0.93730  0.81190  Biso   1.000  H
  C48      1.0000 0.54170  0.95530  0.62640  Biso   1.000  C
  H31      1.0000 0.54810  0.98880  0.58860  Biso   1.000  H
  C49      1.0000 0.51120  0.89260  0.59820  Biso   1.000  C
  H32      1.0000 0.49640  0.88400  0.54310  Biso   1.000  H
  C50      1.0000 0.65590  0.50570  0.17350  Biso   1.000  C
  H33      1.0000 0.65550  0.48910  0.22500  Biso   1.000  H
  C51      1.0000 0.55840  0.48510  0.11140  Biso   1.000  C
  H34      1.0000 0.49760  0.45370  0.12140  Biso   1.000  H
  C52      1.0000 0.55220  0.51110  0.03560  Biso   1.000  C
  C53      1.0000 0.64570  0.55450  0.02300  Biso   1.000  C
  H35      1.0000 0.64530  0.57340  0.97240  Biso   1.000  H
  C54      1.0000 0.74460  0.57050  0.08930  Biso   1.000  C
  H36      1.0000 0.81060  0.59890  0.08040  Biso   1.000  H
  N6       1.0000 0.02770  0.56980  0.18480  Biso   1.000  N
  N7       1.0000 0.77640  0.58840  0.33940  Biso   1.000  N
  N8       1.0000 0.05570  0.61480  0.35330  Biso   1.000  N
  N9       1.0000 0.74720  0.54680  0.16320  Biso   1.000  N
  N10      1.0000 0.56360  0.97350  0.70410  Biso   1.000  N
  Co2      1.0000 0.90188  0.57783  0.25948  Biso   1.000  Co
  S3       1.0000 0.20460  0.54490  0.08270  Biso   1.000  S
  S4       1.0000 0.63990  0.59421  0.46736  Biso   1.000  S
  C55      1.0000 0.59810  0.93910  0.14220  Biso   1.000  C
  C56      1.0000 0.21750  0.90940  0.39520  Biso   1.000  C
  C57      1.0000 0.54040  0.82830  0.39290  Biso   1.000  C
  H37      1.0000 0.46350  0.80470  0.37890  Biso   1.000  H
  C58      1.0000 0.63350  0.80240  0.45390  Biso   1.000  C
  H38      1.0000 0.61920  0.76140  0.47800  Biso   1.000  H
  C59      1.0000 0.74800  0.83710  0.47950  Biso   1.000  C
  C60      1.0000 0.76690  0.89610  0.43660  Biso   1.000  C
  H39      1.0000 0.84370  0.92000  0.44850  Biso   1.000  H
  C61      1.0000 0.66840  0.91820  0.37570  Biso   1.000  C
  H40      1.0000 0.68100  0.95810  0.34900  Biso   1.000  H
  C62      1.0000 0.84760  0.81000  0.54350  Biso   1.000  C
  C63      1.0000 0.86360  0.74000  0.55840  Biso   1.000  C
  H41      1.0000 0.81650  0.70620  0.52820  Biso   1.000  H
  C64      1.0000 0.96210  0.72870  0.62650  Biso   1.000  C
  C65      1.0000 0.01550  0.79090  0.65370  Biso   1.000  C
  C66      1.0000 0.93700  0.84560  0.60290  Biso   1.000  C
  C67      1.0000 0.94720  0.91340  0.61450  Biso   1.000  C
  H42      1.0000 0.88630  0.93920  0.58090  Biso   1.000  H
  C68      1.0000 0.03560  0.95030  0.66930  Biso   1.000  C
  H43      1.0000 0.02390  0.99690  0.66750  Biso   1.000  H
  C69      1.0000 0.13610  0.92800  0.72500  Biso   1.000  C
  H44      1.0000 0.18470  0.96160  0.75460  Biso   1.000  H
  C70      1.0000 0.17650  0.86270  0.74400  Biso   1.000  C
  H45      1.0000 0.25010  0.85870  0.78310  Biso   1.000  H
  C71      1.0000 0.12240  0.80180  0.71260  Biso   1.000  C
  H46      1.0000 0.16430  0.76300  0.73460  Biso   1.000  H
  C72      1.0000 0.00230  0.65880  0.65260  Biso   1.000  C
  C73      1.0000 0.02860  0.64190  0.73410  Biso   1.000  C
  H47      1.0000 0.02820  0.67510  0.77310  Biso   1.000  H
  C74      1.0000 0.05590  0.57400  0.75750  Biso   1.000  C
  H48      1.0000 0.06860  0.56270  0.81190  Biso   1.000  H
  C75      1.0000 0.04170  0.54470  0.62640  Biso   1.000  C
  H49      1.0000 0.04810  0.51120  0.58860  Biso   1.000  H
  C76      1.0000 0.01120  0.60740  0.59820  Biso   1.000  C
  H50      1.0000 0.99640  0.61600  0.54310  Biso   1.000  H
  C77      1.0000 0.15590  0.99430  0.17350  Biso   1.000  C
  H51      1.0000 0.15550  0.01090  0.22500  Biso   1.000  H
  C78      1.0000 0.05840  0.01490  0.11140  Biso   1.000  C
  H52      1.0000 0.99760  0.04630  0.12140  Biso   1.000  H
  C79      1.0000 0.05220  0.98890  0.03560  Biso   1.000  C
  C80      1.0000 0.14570  0.94550  0.02300  Biso   1.000  C
  H53      1.0000 0.14530  0.92660  0.97240  Biso   1.000  H
  C81      1.0000 0.24460  0.92950  0.08930  Biso   1.000  C
  H54      1.0000 0.31060  0.90110  0.08040  Biso   1.000  H
  N11      1.0000 0.52770  0.93020  0.18480  Biso   1.000  N
  N12      1.0000 0.27640  0.91160  0.33940  Biso   1.000  N
  N13      1.0000 0.55570  0.88520  0.35330  Biso   1.000  N
  N14      1.0000 0.24720  0.95320  0.16320  Biso   1.000  N
  N15      1.0000 0.06360  0.52650  0.70410  Biso   1.000  N
  Co3      1.0000 0.40188  0.92217  0.25948  Biso   1.000  Co
  S5       1.0000 0.70460  0.95510  0.08270  Biso   1.000  S
  S6       1.0000 0.13990  0.90579  0.46736  Biso   1.000  S
  C82      1.0000 0.90190  0.43910  0.85780  Biso   1.000  C
  C83      1.0000 0.28250  0.40940  0.60480  Biso   1.000  C
  C84      1.0000 0.95960  0.32830  0.60710  Biso   1.000  C
  H55      1.0000 0.03650  0.30470  0.62110  Biso   1.000  H
  C85      1.0000 0.86650  0.30240  0.54610  Biso   1.000  C
  H56      1.0000 0.88080  0.26140  0.52200  Biso   1.000  H
  C86      1.0000 0.75200  0.33710  0.52050  Biso   1.000  C
  C87      1.0000 0.73310  0.39610  0.56340  Biso   1.000  C
  H57      1.0000 0.65630  0.42000  0.55150  Biso   1.000  H
  C88      1.0000 0.83160  0.41820  0.62430  Biso   1.000  C
  H58      1.0000 0.81900  0.45810  0.65100  Biso   1.000  H
  C89      1.0000 0.65240  0.31000  0.45650  Biso   1.000  C
  C90      1.0000 0.63640  0.24000  0.44160  Biso   1.000  C
  H59      1.0000 0.68350  0.20620  0.47180  Biso   1.000  H
  C91      1.0000 0.53790  0.22870  0.37350  Biso   1.000  C
  C92      1.0000 0.48450  0.29090  0.34630  Biso   1.000  C
  C93      1.0000 0.56300  0.34560  0.39710  Biso   1.000  C
  C94      1.0000 0.55280  0.41340  0.38550  Biso   1.000  C
  H60      1.0000 0.61370  0.43920  0.41910  Biso   1.000  H
  C95      1.0000 0.46440  0.45030  0.33070  Biso   1.000  C
  H61      1.0000 0.47610  0.49690  0.33250  Biso   1.000  H
  C96      1.0000 0.36390  0.42800  0.27500  Biso   1.000  C
  H62      1.0000 0.31530  0.46160  0.24540  Biso   1.000  H
  C97      1.0000 0.32350  0.36270  0.25600  Biso   1.000  C
  H63      1.0000 0.24990  0.35870  0.21690  Biso   1.000  H
  C98      1.0000 0.37760  0.30180  0.28740  Biso   1.000  C
  H64      1.0000 0.33570  0.26300  0.26540  Biso   1.000  H
  C99      1.0000 0.49770  0.15880  0.34740  Biso   1.000  C
  C100     1.0000 0.47140  0.14190  0.26590  Biso   1.000  C
  H65      1.0000 0.47180  0.17510  0.22690  Biso   1.000  H
  C101     1.0000 0.44410  0.07400  0.24250  Biso   1.000  C
  H66      1.0000 0.43140  0.06270  0.18810  Biso   1.000  H
  C102     1.0000 0.45830  0.04470  0.37360  Biso   1.000  C
  H67      1.0000 0.45190  0.01120  0.41140  Biso   1.000  H
  C103     1.0000 0.48880  0.10740  0.40180  Biso   1.000  C
  H68      1.0000 0.50360  0.11600  0.45690  Biso   1.000  H
  C104     1.0000 0.34410  0.49430  0.82650  Biso   1.000  C
  H69      1.0000 0.34450  0.51090  0.77500  Biso   1.000  H
  C105     1.0000 0.44160  0.51490  0.88860  Biso   1.000  C
  H70      1.0000 0.50240  0.54630  0.87860  Biso   1.000  H
  C106     1.0000 0.44780  0.48890  0.96440  Biso   1.000  C
  C107     1.0000 0.35430  0.44550  0.97700  Biso   1.000  C
  H71      1.0000 0.35470  0.42660  0.02760  Biso   1.000  H
  C108     1.0000 0.25540  0.42950  0.91070  Biso   1.000  C
  H72      1.0000 0.18940  0.40110  0.91960  Biso   1.000  H
  N16      1.0000 0.97230  0.43020  0.81520  Biso   1.000  N
  N17      1.0000 0.22360  0.41160  0.66060  Biso   1.000  N
  N18      1.0000 0.94430  0.38520  0.64670  Biso   1.000  N
  N19      1.0000 0.25280  0.45320  0.83680  Biso   1.000  N
  N20      1.0000 0.43640  0.02650  0.29590  Biso   1.000  N
  Co4      1.0000 0.09812  0.42217  0.74052  Biso   1.000  Co
  S7       1.0000 0.79540  0.45510  0.91730  Biso   1.000  S
  S8       1.0000 0.36010  0.40579  0.53264  Biso   1.000  S
