data_image0
_cell_length_a       15.9139
_cell_length_b       16.0359
_cell_length_c       18.0494
_cell_angle_alpha    106.393
_cell_angle_beta     97.747
_cell_angle_gamma    95.351

_symmetry_space_group_name_H-M    "P 1"
_symmetry_int_tables_number       1

loop_
  _symmetry_equiv_pos_as_xyz
  'x, y, z'

loop_
  _atom_site_label
  _atom_site_occupancy
  _atom_site_fract_x
  _atom_site_fract_y
  _atom_site_fract_z
  _atom_site_thermal_displace_type
  _atom_site_B_iso_or_equiv
  _atom_site_type_symbol
  C1       1.0000 0.38270  0.90440  0.28370  Biso   1.000  C
  H1       1.0000 0.39560  0.92600  0.24330  Biso   1.000  H
  C2       1.0000 0.37950  0.81460  0.27320  Biso   1.000  C
  H2       1.0000 0.38990  0.77750  0.22640  Biso   1.000  H
  C3       1.0000 0.34930  0.92680  0.40560  Biso   1.000  C
  H3       1.0000 0.33890  0.96500  0.45180  Biso   1.000  H
  C4       1.0000 0.34480  0.83890  0.39920  Biso   1.000  C
  H4       1.0000 0.33080  0.81880  0.44020  Biso   1.000  H
  C5       1.0000 0.36100  0.78100  0.33210  Biso   1.000  C
  C6       1.0000 0.35730  0.68620  0.32100  Biso   1.000  C
  H5       1.0000 0.36580  0.64960  0.27330  Biso   1.000  H
  C7       1.0000 0.36060  0.53250  0.40920  Biso   1.000  C
  H6       1.0000 0.37430  0.57160  0.45950  Biso   1.000  H
  C8       1.0000 0.36190  0.43830  0.39800  Biso   1.000  C
  C9       1.0000 0.33110  0.37580  0.33000  Biso   1.000  C
  H7       1.0000 0.30730  0.39150  0.28680  Biso   1.000  H
  C10      1.0000 0.33470  0.28880  0.32390  Biso   1.000  C
  H8       1.0000 0.31030  0.24740  0.27650  Biso   1.000  H
  C11      1.0000 0.39740  0.32140  0.44840  Biso   1.000  C
  H9       1.0000 0.41970  0.30360  0.49090  Biso   1.000  H
  C12      1.0000 0.39460  0.41010  0.45920  Biso   1.000  C
  H10      1.0000 0.41500  0.45040  0.50810  Biso   1.000  H
  C13      1.0000 0.56780  0.20600  0.38770  Biso   1.000  C
  H11      1.0000 0.53890  0.25450  0.39210  Biso   1.000  H
  C14      1.0000 0.65570  0.21810  0.39120  Biso   1.000  C
  H12      1.0000 0.68500  0.27360  0.39880  Biso   1.000  H
  C15      1.0000 0.69880  0.14680  0.38350  Biso   1.000  C
  C16      1.0000 0.65300  0.06500  0.37170  Biso   1.000  C
  H13      1.0000 0.68040  0.01520  0.36490  Biso   1.000  H
  C17      1.0000 0.56590  0.05920  0.37050  Biso   1.000  C
  H14      1.0000 0.53540  0.00460  0.36400  Biso   1.000  H
  C18      1.0000 0.79220  0.15730  0.38470  Biso   1.000  C
  H15      1.0000 0.82410  0.21270  0.40540  Biso   1.000  H
  C19      1.0000 0.95360  0.05440  0.32950  Biso   1.000  C
  H16      1.0000 0.92130  0.00180  0.29830  Biso   1.000  H
  C20      1.0000 0.04930  0.06850  0.33540  Biso   1.000  C
  C21      1.0000 0.08920  0.00850  0.28380  Biso   1.000  C
  H17      1.0000 0.05760  0.96040  0.24520  Biso   1.000  H
  C22      1.0000 0.17880  0.02370  0.29280  Biso   1.000  C
  H18      1.0000 0.20610  0.98450  0.25890  Biso   1.000  H
  C23      1.0000 0.18640  0.14880  0.39570  Biso   1.000  C
  H19      1.0000 0.21920  0.19660  0.43390  Biso   1.000  H
  C24      1.0000 0.09820  0.13930  0.39060  Biso   1.000  C
  H20      1.0000 0.07250  0.18050  0.42430  Biso   1.000  H
  Cd1      1.0000 0.37487  0.11089  0.36386  Biso   1.000  Cd
  N1       1.0000 0.52263  0.12870  0.37820  Biso   1.000  N
  N2       1.0000 0.82930  0.09100  0.35770  Biso   1.000  N
  N3       1.0000 0.91860  0.11560  0.36780  Biso   1.000  N
  N4       1.0000 0.22680  0.09170  0.34750  Biso   1.000  N
  N5       1.0000 0.36804  0.96038  0.34879  Biso   1.000  N
  N6       1.0000 0.34310  0.65330  0.37420  Biso   1.000  N
  N7       1.0000 0.34140  0.56140  0.35170  Biso   1.000  N
  N8       1.0000 0.36955  0.26043  0.37954  Biso   1.000  N
  C25      1.0000 0.61730  0.09560  0.71630  Biso   1.000  C
  H21      1.0000 0.60440  0.07400  0.75670  Biso   1.000  H
  C26      1.0000 0.62050  0.18540  0.72680  Biso   1.000  C
  H22      1.0000 0.61010  0.22250  0.77360  Biso   1.000  H
  C27      1.0000 0.65070  0.07320  0.59440  Biso   1.000  C
  H23      1.0000 0.66110  0.03500  0.54820  Biso   1.000  H
  C28      1.0000 0.65520  0.16110  0.60080  Biso   1.000  C
  H24      1.0000 0.66920  0.18120  0.55980  Biso   1.000  H
  C29      1.0000 0.63900  0.21900  0.66790  Biso   1.000  C
  C30      1.0000 0.64270  0.31380  0.67900  Biso   1.000  C
  H25      1.0000 0.63420  0.35040  0.72670  Biso   1.000  H
  C31      1.0000 0.63940  0.46750  0.59080  Biso   1.000  C
  H26      1.0000 0.62570  0.42840  0.54050  Biso   1.000  H
  C32      1.0000 0.63810  0.56170  0.60200  Biso   1.000  C
  C33      1.0000 0.66890  0.62420  0.67000  Biso   1.000  C
  H27      1.0000 0.69270  0.60850  0.71320  Biso   1.000  H
  C34      1.0000 0.66530  0.71120  0.67610  Biso   1.000  C
  H28      1.0000 0.68970  0.75260  0.72350  Biso   1.000  H
  C35      1.0000 0.60260  0.67860  0.55160  Biso   1.000  C
  H29      1.0000 0.58030  0.69640  0.50910  Biso   1.000  H
  C36      1.0000 0.60540  0.58990  0.54080  Biso   1.000  C
  H30      1.0000 0.58500  0.54960  0.49190  Biso   1.000  H
  C37      1.0000 0.43220  0.79400  0.61230  Biso   1.000  C
  H31      1.0000 0.46110  0.74550  0.60790  Biso   1.000  H
  C38      1.0000 0.34430  0.78190  0.60880  Biso   1.000  C
  H32      1.0000 0.31500  0.72640  0.60120  Biso   1.000  H
  C39      1.0000 0.30120  0.85320  0.61650  Biso   1.000  C
  C40      1.0000 0.34700  0.93500  0.62830  Biso   1.000  C
  H33      1.0000 0.31960  0.98480  0.63510  Biso   1.000  H
  C41      1.0000 0.43410  0.94080  0.62950  Biso   1.000  C
  H34      1.0000 0.46460  0.99540  0.63600  Biso   1.000  H
  C42      1.0000 0.20780  0.84270  0.61530  Biso   1.000  C
  H35      1.0000 0.17590  0.78730  0.59460  Biso   1.000  H
  C43      1.0000 0.04640  0.94560  0.67050  Biso   1.000  C
  H36      1.0000 0.07870  0.99820  0.70170  Biso   1.000  H
  C44      1.0000 0.95070  0.93150  0.66460  Biso   1.000  C
  C45      1.0000 0.91080  0.99150  0.71620  Biso   1.000  C
  H37      1.0000 0.94240  0.03960  0.75480  Biso   1.000  H
  C46      1.0000 0.82120  0.97630  0.70720  Biso   1.000  C
  H38      1.0000 0.79390  0.01550  0.74110  Biso   1.000  H
  C47      1.0000 0.81360  0.85120  0.60430  Biso   1.000  C
  H39      1.0000 0.78080  0.80340  0.56610  Biso   1.000  H
  C48      1.0000 0.90180  0.86070  0.60940  Biso   1.000  C
  H40      1.0000 0.92750  0.81950  0.57570  Biso   1.000  H
  Cd2      1.0000 0.62513  0.88910  0.63614  Biso   1.000  Cd
  N9       1.0000 0.47737  0.87130  0.62180  Biso   1.000  N
  N10      1.0000 0.17070  0.90900  0.64230  Biso   1.000  N
  N11      1.0000 0.08140  0.88440  0.63220  Biso   1.000  N
  N12      1.0000 0.77320  0.90830  0.65250  Biso   1.000  N
  N13      1.0000 0.63196  0.03962  0.65121  Biso   1.000  N
  N14      1.0000 0.65690  0.34670  0.62580  Biso   1.000  N
  N15      1.0000 0.65860  0.43860  0.64830  Biso   1.000  N
  N16      1.0000 0.63045  0.73957  0.62046  Biso   1.000  N
  C49      1.0000 0.39110  0.79330  0.82240  Biso   1.000  C
  H41      1.0000 0.38670  0.75370  0.77280  Biso   1.000  H
  C50      1.0000 0.39290  0.88260  0.82940  Biso   1.000  C
  H42      1.0000 0.39290  0.90230  0.78560  Biso   1.000  H
  C51      1.0000 0.39480  0.94130  0.90310  Biso   1.000  C
  C52      1.0000 0.40120  0.90930  0.96570  Biso   1.000  C
  H43      1.0000 0.40500  0.94730  0.01600  Biso   1.000  H
  C53      1.0000 0.40210  0.82030  0.95450  Biso   1.000  C
  H44      1.0000 0.40760  0.80010  0.99820  Biso   1.000  H
  C54      1.0000 0.39440  0.03610  0.91510  Biso   1.000  C
  H45      1.0000 0.39220  0.07320  0.96460  Biso   1.000  H
  C55      1.0000 0.39230  0.18940  0.82390  Biso   1.000  C
  H46      1.0000 0.39230  0.15180  0.77410  Biso   1.000  H
  C56      1.0000 0.39010  0.28380  0.83520  Biso   1.000  C
  C57      1.0000 0.39130  0.31570  0.77210  Biso   1.000  C
  H47      1.0000 0.39230  0.27780  0.72270  Biso   1.000  H
  C58      1.0000 0.39090  0.40440  0.78280  Biso   1.000  C
  H48      1.0000 0.39110  0.42480  0.73950  Biso   1.000  H
  C59      1.0000 0.38890  0.43090  0.91360  Biso   1.000  C
  H49      1.0000 0.38830  0.47030  0.96240  Biso   1.000  H
  C60      1.0000 0.38850  0.34250  0.90790  Biso   1.000  C
  H50      1.0000 0.38710  0.32330  0.95180  Biso   1.000  H
  C61      1.0000 0.58910  0.70900  0.90020  Biso   1.000  C
  H51      1.0000 0.56100  0.75820  0.91200  Biso   1.000  H
  C62      1.0000 0.67710  0.72120  0.90560  Biso   1.000  C
  H52      1.0000 0.70760  0.77740  0.92180  Biso   1.000  H
  C63      1.0000 0.71900  0.64790  0.88640  Biso   1.000  C
  C64      1.0000 0.67120  0.56510  0.86480  Biso   1.000  C
  H53      1.0000 0.69780  0.51490  0.85260  Biso   1.000  H
  C65      1.0000 0.58430  0.55900  0.86180  Biso   1.000  C
  H54      1.0000 0.55280  0.50340  0.84730  Biso   1.000  H
  C66      1.0000 0.81020  0.65810  0.88840  Biso   1.000  C
  H55      1.0000 0.84230  0.71250  0.91480  Biso   1.000  H
  C67      1.0000 0.97360  0.55750  0.82640  Biso   1.000  C
  H56      1.0000 0.94120  0.50560  0.79400  Biso   1.000  H
  C68      1.0000 0.06850  0.57080  0.83320  Biso   1.000  C
  C69      1.0000 0.11780  0.64300  0.88950  Biso   1.000  C
  H57      1.0000 0.09170  0.68400  0.92300  Biso   1.000  H
  C70      1.0000 0.19820  0.52520  0.79390  Biso   1.000  C
  H58      1.0000 0.22540  0.48480  0.76090  Biso   1.000  H
  C71      1.0000 0.10950  0.51130  0.78530  Biso   1.000  C
  H59      1.0000 0.07830  0.46220  0.74740  Biso   1.000  H
  Cd3      1.0000 0.39410  0.61188  0.86639  Biso   1.000  Cd
  N17      1.0000 0.24620  0.59440  0.84790  Biso   1.000  N
  N18      1.0000 0.84850  0.59500  0.85520  Biso   1.000  N
  N19      1.0000 0.54237  0.62895  0.87870  Biso   1.000  N
  N20      1.0000 0.39019  0.46196  0.85210  Biso   1.000  N
  N21      1.0000 0.39420  0.15900  0.88210  Biso   1.000  N
  N22      1.0000 0.39710  0.06720  0.85790  Biso   1.000  N
  N23      1.0000 0.39550  0.76275  0.88422  Biso   1.000  N
  C72      1.0000 0.20580  0.65320  0.89520  Biso   1.000  C
  N24      1.0000 0.93770  0.61930  0.86640  Biso   1.000  N
  C73      1.0000 0.60890  0.20670  0.17760  Biso   1.000  C
  H60      1.0000 0.61330  0.24630  0.22720  Biso   1.000  H
  C74      1.0000 0.60710  0.11740  0.17060  Biso   1.000  C
  H61      1.0000 0.60710  0.09770  0.21440  Biso   1.000  H
  C75      1.0000 0.60520  0.05870  0.09690  Biso   1.000  C
  C76      1.0000 0.59880  0.09070  0.03430  Biso   1.000  C
  H62      1.0000 0.59500  0.05270  0.98400  Biso   1.000  H
  C77      1.0000 0.59790  0.17970  0.04550  Biso   1.000  C
  H63      1.0000 0.59240  0.19990  0.00180  Biso   1.000  H
  C78      1.0000 0.60560  0.96390  0.08490  Biso   1.000  C
  H64      1.0000 0.60780  0.92680  0.03540  Biso   1.000  H
  C79      1.0000 0.60770  0.81060  0.17610  Biso   1.000  C
  H65      1.0000 0.60770  0.84820  0.22590  Biso   1.000  H
  C80      1.0000 0.60990  0.71620  0.16480  Biso   1.000  C
  C81      1.0000 0.60870  0.68430  0.22790  Biso   1.000  C
  H66      1.0000 0.60770  0.72220  0.27730  Biso   1.000  H
  C82      1.0000 0.60910  0.59560  0.21720  Biso   1.000  C
  H67      1.0000 0.60890  0.57520  0.26050  Biso   1.000  H
  C83      1.0000 0.61110  0.56910  0.08640  Biso   1.000  C
  H68      1.0000 0.61170  0.52970  0.03760  Biso   1.000  H
  C84      1.0000 0.61150  0.65750  0.09210  Biso   1.000  C
  H69      1.0000 0.61290  0.67670  0.04820  Biso   1.000  H
  C85      1.0000 0.41090  0.29100  0.09980  Biso   1.000  C
  H70      1.0000 0.43900  0.24180  0.08800  Biso   1.000  H
  C86      1.0000 0.32290  0.27880  0.09440  Biso   1.000  C
  H71      1.0000 0.29240  0.22260  0.07820  Biso   1.000  H
  C87      1.0000 0.28100  0.35210  0.11360  Biso   1.000  C
  C88      1.0000 0.32880  0.43490  0.13520  Biso   1.000  C
  H72      1.0000 0.30220  0.48510  0.14740  Biso   1.000  H
  C89      1.0000 0.41570  0.44100  0.13820  Biso   1.000  C
  H73      1.0000 0.44720  0.49660  0.15270  Biso   1.000  H
  C90      1.0000 0.18980  0.34190  0.11160  Biso   1.000  C
  H74      1.0000 0.15770  0.28750  0.08520  Biso   1.000  H
  C91      1.0000 0.02640  0.44250  0.17360  Biso   1.000  C
  H75      1.0000 0.05880  0.49440  0.20600  Biso   1.000  H
  C92      1.0000 0.93150  0.42920  0.16680  Biso   1.000  C
  C93      1.0000 0.88220  0.35700  0.11050  Biso   1.000  C
  H76      1.0000 0.90830  0.31600  0.07700  Biso   1.000  H
  C94      1.0000 0.80180  0.47480  0.20610  Biso   1.000  C
  H77      1.0000 0.77460  0.51520  0.23910  Biso   1.000  H
  C95      1.0000 0.89050  0.48870  0.21470  Biso   1.000  C
  H78      1.0000 0.92170  0.53780  0.25260  Biso   1.000  H
  Cd4      1.0000 0.60590  0.38812  0.13361  Biso   1.000  Cd
  N25      1.0000 0.75380  0.40560  0.15210  Biso   1.000  N
  N26      1.0000 0.15150  0.40500  0.14480  Biso   1.000  N
  N27      1.0000 0.45763  0.37105  0.12130  Biso   1.000  N
  N28      1.0000 0.60981  0.53804  0.14790  Biso   1.000  N
  N29      1.0000 0.60580  0.84100  0.11790  Biso   1.000  N
  N30      1.0000 0.60290  0.93280  0.14210  Biso   1.000  N
  N31      1.0000 0.60450  0.23725  0.11578  Biso   1.000  N
  C96      1.0000 0.79420  0.34680  0.10480  Biso   1.000  C
  N32      1.0000 0.06230  0.38070  0.13360  Biso   1.000  N
