data_image0
_cell_length_a       18.6325
_cell_length_b       19.481
_cell_length_c       10.404
_cell_angle_alpha    90
_cell_angle_beta     94.787
_cell_angle_gamma    90

_symmetry_space_group_name_H-M    "P 1"
_symmetry_int_tables_number       1

loop_
  _symmetry_equiv_pos_as_xyz
  'x, y, z'

loop_
  _atom_site_label
  _atom_site_occupancy
  _atom_site_fract_x
  _atom_site_fract_y
  _atom_site_fract_z
  _atom_site_thermal_displace_type
  _atom_site_B_iso_or_equiv
  _atom_site_type_symbol
  C1       1.0000 0.72810  0.42130  0.52540  Biso   1.000  C
  H1       1.0000 0.77720  0.43090  0.53230  Biso   1.000  H
  C2       1.0000 0.70710  0.35480  0.50170  Biso   1.000  C
  H2       1.0000 0.74130  0.32050  0.49390  Biso   1.000  H
  C3       1.0000 0.63410  0.33920  0.48930  Biso   1.000  C
  C4       1.0000 0.58700  0.39270  0.50130  Biso   1.000  C
  H3       1.0000 0.53760  0.38480  0.49040  Biso   1.000  H
  C5       1.0000 0.61220  0.45760  0.52920  Biso   1.000  C
  H4       1.0000 0.57910  0.49230  0.54160  Biso   1.000  H
  C6       1.0000 0.60630  0.27040  0.45370  Biso   1.000  C
  C7       1.0000 0.63260  0.20580  0.49820  Biso   1.000  C
  C8       1.0000 0.68630  0.19440  0.59820  Biso   1.000  C
  H5       1.0000 0.70510  0.23410  0.63760  Biso   1.000  H
  C9       1.0000 0.71570  0.13450  0.64800  Biso   1.000  C
  H6       1.0000 0.75080  0.13870  0.71660  Biso   1.000  H
  C10      1.0000 0.69840  0.06800  0.60660  Biso   1.000  C
  H7       1.0000 0.72490  0.03340  0.64990  Biso   1.000  H
  C11      1.0000 0.64820  0.04570  0.51170  Biso   1.000  C
  H8       1.0000 0.64710  0.99850  0.49860  Biso   1.000  H
  C12      1.0000 0.59970  0.08240  0.43350  Biso   1.000  C
  H9       1.0000 0.57010  0.05640  0.37580  Biso   1.000  H
  C13      1.0000 0.58790  0.15290  0.42750  Biso   1.000  C
  C14      1.0000 0.53500  0.18820  0.34720  Biso   1.000  C
  C15      1.0000 0.54840  0.25830  0.36350  Biso   1.000  C
  H10      1.0000 0.52180  0.29270  0.31950  Biso   1.000  H
  C16      1.0000 0.47670  0.16140  0.25900  Biso   1.000  C
  C17      1.0000 0.45380  0.19830  0.14790  Biso   1.000  C
  H11      1.0000 0.47540  0.24000  0.13080  Biso   1.000  H
  C18      1.0000 0.39930  0.17300  0.06360  Biso   1.000  C
  H12      1.0000 0.38610  0.19820  0.98950  Biso   1.000  H
  C19      1.0000 0.38560  0.08010  0.18980  Biso   1.000  C
  H13      1.0000 0.36170  0.03950  0.20620  Biso   1.000  H
  C20      1.0000 0.44020  0.10040  0.27830  Biso   1.000  C
  H14      1.0000 0.45270  0.07370  0.35080  Biso   1.000  H
  C21      1.0000 0.60070  0.59500  0.76440  Biso   1.000  C
  C22      1.0000 0.87140  0.56590  0.69500  Biso   1.000  C
  H15      1.0000 0.88200  0.59310  0.62560  Biso   1.000  H
  C23      1.0000 0.92620  0.54900  0.78640  Biso   1.000  C
  H16      1.0000 0.97250  0.56560  0.77870  Biso   1.000  H
  C24      1.0000 0.91290  0.50760  0.88930  Biso   1.000  C
  C25      1.0000 0.84310  0.48490  0.89360  Biso   1.000  C
  H17      1.0000 0.83150  0.45610  0.96010  Biso   1.000  H
  C26      1.0000 0.79080  0.50460  0.80060  Biso   1.000  C
  H18      1.0000 0.74410  0.48890  0.80650  Biso   1.000  H
  C27      1.0000 0.96850  0.48770  0.99160  Biso   1.000  C
  H19      1.0000 0.95620  0.45400  0.04900  Biso   1.000  H
  Co1      1.0000 0.71842  0.57769  0.55983  Biso   1.000  Co
  N1       1.0000 0.68240  0.47332  0.53940  Biso   1.000  N
  N2       1.0000 0.80380  0.54510  0.70170  Biso   1.000  N
  N3       1.0000 0.78740  0.56340  0.41300  Biso   1.000  N
  N4       1.0000 0.64930  0.59290  0.70390  Biso   1.000  N
  N5       1.0000 0.36410  0.11401  0.08210  Biso   1.000  N
  S1       1.0000 0.53189  0.59658  0.85003  Biso   1.000  S
  C28      1.0000 0.82830  0.56110  0.34540  Biso   1.000  C
  S2       1.0000 0.88600  0.53990  0.23820  Biso   1.000  S
  C29      1.0000 0.82570  0.52860  0.35790  Biso   1.000  C
  S3       1.0000 0.88000  0.48080  0.28930  Biso   1.000  S
  C30      1.0000 0.27190  0.92130  0.97460  Biso   1.000  C
  H20      1.0000 0.22280  0.93090  0.96770  Biso   1.000  H
  C31      1.0000 0.29290  0.85480  0.99830  Biso   1.000  C
  H21      1.0000 0.25870  0.82050  0.00610  Biso   1.000  H
  C32      1.0000 0.36590  0.83920  0.01070  Biso   1.000  C
  C33      1.0000 0.41300  0.89270  0.99870  Biso   1.000  C
  H22      1.0000 0.46240  0.88480  0.00960  Biso   1.000  H
  C34      1.0000 0.38780  0.95760  0.97080  Biso   1.000  C
  H23      1.0000 0.42090  0.99230  0.95840  Biso   1.000  H
  C35      1.0000 0.39370  0.77040  0.04630  Biso   1.000  C
  C36      1.0000 0.36740  0.70580  0.00180  Biso   1.000  C
  C37      1.0000 0.31370  0.69440  0.90180  Biso   1.000  C
  H24      1.0000 0.29490  0.73410  0.86240  Biso   1.000  H
  C38      1.0000 0.28430  0.63450  0.85200  Biso   1.000  C
  H25      1.0000 0.24920  0.63870  0.78340  Biso   1.000  H
  C39      1.0000 0.30160  0.56800  0.89340  Biso   1.000  C
  H26      1.0000 0.27510  0.53340  0.85010  Biso   1.000  H
  C40      1.0000 0.35180  0.54570  0.98830  Biso   1.000  C
  H27      1.0000 0.35290  0.49850  0.00140  Biso   1.000  H
  C41      1.0000 0.40030  0.58240  0.06650  Biso   1.000  C
  H28      1.0000 0.42990  0.55640  0.12420  Biso   1.000  H
  C42      1.0000 0.41210  0.65290  0.07250  Biso   1.000  C
  C43      1.0000 0.46500  0.68820  0.15280  Biso   1.000  C
  C44      1.0000 0.45160  0.75830  0.13650  Biso   1.000  C
  H29      1.0000 0.47820  0.79270  0.18050  Biso   1.000  H
  C45      1.0000 0.52330  0.66140  0.24100  Biso   1.000  C
  C46      1.0000 0.54620  0.69830  0.35210  Biso   1.000  C
  H30      1.0000 0.52460  0.74000  0.36920  Biso   1.000  H
  C47      1.0000 0.60070  0.67300  0.43640  Biso   1.000  C
  H31      1.0000 0.61390  0.69820  0.51050  Biso   1.000  H
  C48      1.0000 0.61440  0.58010  0.31020  Biso   1.000  C
  H32      1.0000 0.63830  0.53950  0.29380  Biso   1.000  H
  C49      1.0000 0.55980  0.60040  0.22170  Biso   1.000  C
  H33      1.0000 0.54730  0.57370  0.14920  Biso   1.000  H
  C50      1.0000 0.39930  0.09500  0.73560  Biso   1.000  C
  C51      1.0000 0.12860  0.06590  0.80500  Biso   1.000  C
  H34      1.0000 0.11800  0.09310  0.87440  Biso   1.000  H
  C52      1.0000 0.07380  0.04900  0.71360  Biso   1.000  C
  H35      1.0000 0.02750  0.06560  0.72130  Biso   1.000  H
  C53      1.0000 0.08710  0.00760  0.61070  Biso   1.000  C
  C54      1.0000 0.15690  0.98490  0.60640  Biso   1.000  C
  H36      1.0000 0.16850  0.95610  0.53990  Biso   1.000  H
  C55      1.0000 0.20920  0.00460  0.69940  Biso   1.000  C
  H37      1.0000 0.25590  0.98890  0.69350  Biso   1.000  H
  C56      1.0000 0.03150  0.98770  0.50840  Biso   1.000  C
  H38      1.0000 0.04380  0.95400  0.45100  Biso   1.000  H
  Co2      1.0000 0.28158  0.07769  0.94017  Biso   1.000  Co
  N6       1.0000 0.31760  0.97332  0.96060  Biso   1.000  N
  N7       1.0000 0.19620  0.04510  0.79830  Biso   1.000  N
  N8       1.0000 0.21260  0.06340  0.08700  Biso   1.000  N
  N9       1.0000 0.35070  0.09290  0.79610  Biso   1.000  N
  N10      1.0000 0.63590  0.61401  0.41790  Biso   1.000  N
  S4       1.0000 0.46811  0.09658  0.64997  Biso   1.000  S
  C57      1.0000 0.17170  0.06110  0.15460  Biso   1.000  C
  S5       1.0000 0.11400  0.03990  0.26180  Biso   1.000  S
  C58      1.0000 0.17430  0.02860  0.14210  Biso   1.000  C
  S6       1.0000 0.12000  0.98080  0.21070  Biso   1.000  S
  C59      1.0000 0.27190  0.57870  0.47460  Biso   1.000  C
  H39      1.0000 0.22280  0.56910  0.46770  Biso   1.000  H
  C60      1.0000 0.29290  0.64520  0.49830  Biso   1.000  C
  H40      1.0000 0.25870  0.67950  0.50610  Biso   1.000  H
  C61      1.0000 0.36590  0.66080  0.51070  Biso   1.000  C
  C62      1.0000 0.41300  0.60730  0.49870  Biso   1.000  C
  H41      1.0000 0.46240  0.61520  0.50960  Biso   1.000  H
  C63      1.0000 0.38780  0.54240  0.47080  Biso   1.000  C
  H42      1.0000 0.42090  0.50770  0.45840  Biso   1.000  H
  C64      1.0000 0.39370  0.72960  0.54630  Biso   1.000  C
  C65      1.0000 0.36740  0.79420  0.50180  Biso   1.000  C
  C66      1.0000 0.31370  0.80560  0.40180  Biso   1.000  C
  H43      1.0000 0.29490  0.76590  0.36240  Biso   1.000  H
  C67      1.0000 0.28430  0.86550  0.35200  Biso   1.000  C
  H44      1.0000 0.24920  0.86130  0.28340  Biso   1.000  H
  C68      1.0000 0.30160  0.93200  0.39340  Biso   1.000  C
  H45      1.0000 0.27510  0.96660  0.35010  Biso   1.000  H
  C69      1.0000 0.35180  0.95430  0.48830  Biso   1.000  C
  H46      1.0000 0.35290  0.00150  0.50140  Biso   1.000  H
  C70      1.0000 0.40030  0.91760  0.56650  Biso   1.000  C
  H47      1.0000 0.42990  0.94360  0.62420  Biso   1.000  H
  C71      1.0000 0.41210  0.84710  0.57250  Biso   1.000  C
  C72      1.0000 0.46500  0.81180  0.65280  Biso   1.000  C
  C73      1.0000 0.45160  0.74170  0.63650  Biso   1.000  C
  H48      1.0000 0.47820  0.70730  0.68050  Biso   1.000  H
  C74      1.0000 0.52330  0.83860  0.74100  Biso   1.000  C
  C75      1.0000 0.54620  0.80170  0.85210  Biso   1.000  C
  H49      1.0000 0.52460  0.76000  0.86920  Biso   1.000  H
  C76      1.0000 0.60070  0.82700  0.93640  Biso   1.000  C
  H50      1.0000 0.61390  0.80180  0.01050  Biso   1.000  H
  C77      1.0000 0.61440  0.91990  0.81020  Biso   1.000  C
  H51      1.0000 0.63830  0.96050  0.79380  Biso   1.000  H
  C78      1.0000 0.55980  0.89960  0.72170  Biso   1.000  C
  H52      1.0000 0.54730  0.92630  0.64920  Biso   1.000  H
  C79      1.0000 0.39930  0.40500  0.23560  Biso   1.000  C
  C80      1.0000 0.12860  0.43410  0.30500  Biso   1.000  C
  H53      1.0000 0.11800  0.40690  0.37440  Biso   1.000  H
  C81      1.0000 0.07380  0.45100  0.21360  Biso   1.000  C
  H54      1.0000 0.02750  0.43440  0.22130  Biso   1.000  H
  C82      1.0000 0.08710  0.49240  0.11070  Biso   1.000  C
  C83      1.0000 0.15690  0.51510  0.10640  Biso   1.000  C
  H55      1.0000 0.16850  0.54390  0.03990  Biso   1.000  H
  C84      1.0000 0.20920  0.49540  0.19940  Biso   1.000  C
  H56      1.0000 0.25590  0.51110  0.19350  Biso   1.000  H
  C85      1.0000 0.03150  0.51230  0.00840  Biso   1.000  C
  H57      1.0000 0.04380  0.54600  0.95100  Biso   1.000  H
  Co3      1.0000 0.28158  0.42231  0.44017  Biso   1.000  Co
  N11      1.0000 0.31760  0.52668  0.46060  Biso   1.000  N
  N12      1.0000 0.19620  0.45490  0.29830  Biso   1.000  N
  N13      1.0000 0.21260  0.43660  0.58700  Biso   1.000  N
  N14      1.0000 0.35070  0.40710  0.29610  Biso   1.000  N
  N15      1.0000 0.63590  0.88599  0.91790  Biso   1.000  N
  S7       1.0000 0.46811  0.40342  0.14997  Biso   1.000  S
  C86      1.0000 0.17170  0.43890  0.65460  Biso   1.000  C
  S8       1.0000 0.11400  0.46010  0.76180  Biso   1.000  S
  C87      1.0000 0.17430  0.47140  0.64210  Biso   1.000  C
  S9       1.0000 0.12000  0.51920  0.71070  Biso   1.000  S
  C88      1.0000 0.72810  0.07870  0.02540  Biso   1.000  C
  H58      1.0000 0.77720  0.06910  0.03230  Biso   1.000  H
  C89      1.0000 0.70710  0.14520  0.00170  Biso   1.000  C
  H59      1.0000 0.74130  0.17950  0.99390  Biso   1.000  H
  C90      1.0000 0.63410  0.16080  0.98930  Biso   1.000  C
  C91      1.0000 0.58700  0.10730  0.00130  Biso   1.000  C
  H60      1.0000 0.53760  0.11520  0.99040  Biso   1.000  H
  C92      1.0000 0.61220  0.04240  0.02920  Biso   1.000  C
  H61      1.0000 0.57910  0.00770  0.04160  Biso   1.000  H
  C93      1.0000 0.60630  0.22960  0.95370  Biso   1.000  C
  C94      1.0000 0.63260  0.29420  0.99820  Biso   1.000  C
  C95      1.0000 0.68630  0.30560  0.09820  Biso   1.000  C
  H62      1.0000 0.70510  0.26590  0.13760  Biso   1.000  H
  C96      1.0000 0.71570  0.36550  0.14800  Biso   1.000  C
  H63      1.0000 0.75080  0.36130  0.21660  Biso   1.000  H
  C97      1.0000 0.69840  0.43200  0.10660  Biso   1.000  C
  H64      1.0000 0.72490  0.46660  0.14990  Biso   1.000  H
  C98      1.0000 0.64820  0.45430  0.01170  Biso   1.000  C
  H65      1.0000 0.64710  0.50150  0.99860  Biso   1.000  H
  C99      1.0000 0.59970  0.41760  0.93350  Biso   1.000  C
  H66      1.0000 0.57010  0.44360  0.87580  Biso   1.000  H
  C100     1.0000 0.58790  0.34710  0.92750  Biso   1.000  C
  C101     1.0000 0.53500  0.31180  0.84720  Biso   1.000  C
  C102     1.0000 0.54840  0.24170  0.86350  Biso   1.000  C
  H67      1.0000 0.52180  0.20730  0.81950  Biso   1.000  H
  C103     1.0000 0.47670  0.33860  0.75900  Biso   1.000  C
  C104     1.0000 0.45380  0.30170  0.64790  Biso   1.000  C
  H68      1.0000 0.47540  0.26000  0.63080  Biso   1.000  H
  C105     1.0000 0.39930  0.32700  0.56360  Biso   1.000  C
  H69      1.0000 0.38610  0.30180  0.48950  Biso   1.000  H
  C106     1.0000 0.38560  0.41990  0.68980  Biso   1.000  C
  H70      1.0000 0.36170  0.46050  0.70620  Biso   1.000  H
  C107     1.0000 0.44020  0.39960  0.77830  Biso   1.000  C
  H71      1.0000 0.45270  0.42630  0.85080  Biso   1.000  H
  C108     1.0000 0.60070  0.90500  0.26440  Biso   1.000  C
  C109     1.0000 0.87140  0.93410  0.19500  Biso   1.000  C
  H72      1.0000 0.88200  0.90690  0.12560  Biso   1.000  H
  C110     1.0000 0.92620  0.95100  0.28640  Biso   1.000  C
  H73      1.0000 0.97250  0.93440  0.27870  Biso   1.000  H
  C111     1.0000 0.91290  0.99240  0.38930  Biso   1.000  C
  C112     1.0000 0.84310  0.01510  0.39360  Biso   1.000  C
  H74      1.0000 0.83150  0.04390  0.46010  Biso   1.000  H
  C113     1.0000 0.79080  0.99540  0.30060  Biso   1.000  C
  H75      1.0000 0.74410  0.01110  0.30650  Biso   1.000  H
  C114     1.0000 0.96850  0.01230  0.49160  Biso   1.000  C
  H76      1.0000 0.95620  0.04600  0.54900  Biso   1.000  H
  Co4      1.0000 0.71842  0.92231  0.05983  Biso   1.000  Co
  N16      1.0000 0.68240  0.02668  0.03940  Biso   1.000  N
  N17      1.0000 0.80380  0.95490  0.20170  Biso   1.000  N
  N18      1.0000 0.78740  0.93660  0.91300  Biso   1.000  N
  N19      1.0000 0.64930  0.90710  0.20390  Biso   1.000  N
  N20      1.0000 0.36410  0.38599  0.58210  Biso   1.000  N
  S10      1.0000 0.53189  0.90342  0.35003  Biso   1.000  S
  C115     1.0000 0.82830  0.93890  0.84540  Biso   1.000  C
  S11      1.0000 0.88600  0.96010  0.73820  Biso   1.000  S
  C116     1.0000 0.82570  0.97140  0.85790  Biso   1.000  C
  S12      1.0000 0.88000  0.01920  0.78930  Biso   1.000  S
