data_image0
_cell_length_a       11.9813
_cell_length_b       22.629
_cell_length_c       13.4193
_cell_angle_alpha    90
_cell_angle_beta     103.465
_cell_angle_gamma    90

_symmetry_space_group_name_H-M    "P 1"
_symmetry_int_tables_number       1

loop_
  _symmetry_equiv_pos_as_xyz
  'x, y, z'

loop_
  _atom_site_label
  _atom_site_occupancy
  _atom_site_fract_x
  _atom_site_fract_y
  _atom_site_fract_z
  _atom_site_thermal_displace_type
  _atom_site_B_iso_or_equiv
  _atom_site_type_symbol
  C1       1.0000 0.51860  0.61477  0.50372  Biso   1.000  C
  H1       1.0000 0.57770  0.58680  0.52800  Biso   1.000  H
  C2       1.0000 0.44630  0.62991  0.56701  Biso   1.000  C
  H2       1.0000 0.45790  0.61380  0.63400  Biso   1.000  H
  C3       1.0000 0.35670  0.66906  0.53030  Biso   1.000  C
  C4       1.0000 0.34300  0.69071  0.43100  Biso   1.000  C
  H3       1.0000 0.28030  0.71590  0.40230  Biso   1.000  H
  C5       1.0000 0.42130  0.67514  0.37490  Biso   1.000  C
  H4       1.0000 0.41300  0.69160  0.30840  Biso   1.000  H
  C6       1.0000 0.27900  0.68735  0.59540  Biso   1.000  C
  H5       1.0000 0.28740  0.67150  0.66230  Biso   1.000  H
  C7       1.0000 0.05570  0.77643  0.59080  Biso   1.000  C
  H6       1.0000 0.05140  0.79000  0.52300  Biso   1.000  H
  C8       1.0000 0.97230  0.79868  0.64690  Biso   1.000  C
  C9       1.0000 0.97110  0.78049  0.74600  Biso   1.000  C
  H7       1.0000 0.02710  0.75370  0.78200  Biso   1.000  H
  C10      1.0000 0.88980  0.83915  0.59790  Biso   1.000  C
  H8       1.0000 0.88810  0.85210  0.53030  Biso   1.000  H
  C11      1.0000 0.80980  0.86024  0.64979  Biso   1.000  C
  H9       1.0000 0.75530  0.88880  0.61720  Biso   1.000  H
  C12      1.0000 0.88630  0.80242  0.79055  Biso   1.000  C
  H10      1.0000 0.88430  0.78910  0.85730  Biso   1.000  H
  C13      1.0000 0.88280  0.58416  0.47850  Biso   1.000  C
  H11      1.0000 0.88800  0.56270  0.41890  Biso   1.000  H
  C14      1.0000 0.96650  0.57537  0.56768  Biso   1.000  C
  H12      1.0000 0.02810  0.54870  0.56880  Biso   1.000  H
  C15      1.0000 0.95881  0.60624  0.65582  Biso   1.000  C
  C16      1.0000 0.86700  0.64501  0.65025  Biso   1.000  C
  H13      1.0000 0.85870  0.66630  0.70910  Biso   1.000  H
  C17      1.0000 0.78818  0.65196  0.55758  Biso   1.000  C
  H14      1.0000 0.72690  0.67920  0.55370  Biso   1.000  H
  C18      1.0000 0.04790  0.59787  0.75108  Biso   1.000  C
  H15      1.0000 0.10260  0.56700  0.75580  Biso   1.000  H
  C19      1.0000 0.23540  0.64324  0.91261  Biso   1.000  C
  H16      1.0000 0.24550  0.66340  0.85320  Biso   1.000  H
  C20      1.0000 0.33300  0.63770  0.00248  Biso   1.000  C
  C21      1.0000 0.43410  0.66749  0.00390  Biso   1.000  C
  H17      1.0000 0.44220  0.68990  0.94610  Biso   1.000  H
  C22      1.0000 0.52340  0.66436  0.09050  Biso   1.000  C
  H18      1.0000 0.59130  0.68630  0.09180  Biso   1.000  H
  C23      1.0000 0.42090  0.60083  0.16942  Biso   1.000  C
  H19      1.0000 0.41730  0.57620  0.22590  Biso   1.000  H
  C24      1.0000 0.32640  0.60356  0.08730  Biso   1.000  C
  H20      1.0000 0.25820  0.58250  0.08880  Biso   1.000  H
  Cd1      1.0000 0.65724  0.63166  0.32186  Biso   1.000  Cd
  N1       1.0000 0.50895  0.63776  0.41003  Biso   1.000  N
  N2       1.0000 0.20040  0.72492  0.55980  Biso   1.000  N
  N3       1.0000 0.13380  0.73923  0.63100  Biso   1.000  N
  N4       1.0000 0.80686  0.84164  0.74389  Biso   1.000  N
  N5       1.0000 0.79475  0.62177  0.47266  Biso   1.000  N
  N6       1.0000 0.05130  0.63218  0.82722  Biso   1.000  N
  N7       1.0000 0.13804  0.62133  0.91380  Biso   1.000  N
  N8       1.0000 0.51784  0.63166  0.17237  Biso   1.000  N
  C25      1.0000 0.51860  0.88523  0.00372  Biso   1.000  C
  H21      1.0000 0.57770  0.91320  0.02800  Biso   1.000  H
  C26      1.0000 0.44630  0.87009  0.06701  Biso   1.000  C
  H22      1.0000 0.45790  0.88620  0.13400  Biso   1.000  H
  C27      1.0000 0.35670  0.83094  0.03030  Biso   1.000  C
  C28      1.0000 0.34300  0.80929  0.93100  Biso   1.000  C
  H23      1.0000 0.28030  0.78410  0.90230  Biso   1.000  H
  C29      1.0000 0.42130  0.82486  0.87490  Biso   1.000  C
  H24      1.0000 0.41300  0.80840  0.80840  Biso   1.000  H
  C30      1.0000 0.27900  0.81265  0.09540  Biso   1.000  C
  H25      1.0000 0.28740  0.82850  0.16230  Biso   1.000  H
  C31      1.0000 0.05570  0.72357  0.09080  Biso   1.000  C
  H26      1.0000 0.05140  0.71000  0.02300  Biso   1.000  H
  C32      1.0000 0.97230  0.70132  0.14690  Biso   1.000  C
  C33      1.0000 0.97110  0.71951  0.24600  Biso   1.000  C
  H27      1.0000 0.02710  0.74630  0.28200  Biso   1.000  H
  C34      1.0000 0.88980  0.66085  0.09790  Biso   1.000  C
  H28      1.0000 0.88810  0.64790  0.03030  Biso   1.000  H
  C35      1.0000 0.80980  0.63976  0.14979  Biso   1.000  C
  H29      1.0000 0.75530  0.61120  0.11720  Biso   1.000  H
  C36      1.0000 0.88630  0.69758  0.29055  Biso   1.000  C
  H30      1.0000 0.88430  0.71090  0.35730  Biso   1.000  H
  C37      1.0000 0.88280  0.91584  0.97850  Biso   1.000  C
  H31      1.0000 0.88800  0.93730  0.91890  Biso   1.000  H
  C38      1.0000 0.96650  0.92463  0.06768  Biso   1.000  C
  H32      1.0000 0.02810  0.95130  0.06880  Biso   1.000  H
  C39      1.0000 0.95881  0.89376  0.15582  Biso   1.000  C
  C40      1.0000 0.86700  0.85499  0.15025  Biso   1.000  C
  H33      1.0000 0.85870  0.83370  0.20910  Biso   1.000  H
  C41      1.0000 0.78818  0.84804  0.05758  Biso   1.000  C
  H34      1.0000 0.72690  0.82080  0.05370  Biso   1.000  H
  C42      1.0000 0.04790  0.90213  0.25108  Biso   1.000  C
  H35      1.0000 0.10260  0.93300  0.25580  Biso   1.000  H
  C43      1.0000 0.23540  0.85676  0.41261  Biso   1.000  C
  H36      1.0000 0.24550  0.83660  0.35320  Biso   1.000  H
  C44      1.0000 0.33300  0.86230  0.50248  Biso   1.000  C
  C45      1.0000 0.43410  0.83251  0.50390  Biso   1.000  C
  H37      1.0000 0.44220  0.81010  0.44610  Biso   1.000  H
  C46      1.0000 0.52340  0.83564  0.59050  Biso   1.000  C
  H38      1.0000 0.59130  0.81370  0.59180  Biso   1.000  H
  C47      1.0000 0.42090  0.89917  0.66942  Biso   1.000  C
  H39      1.0000 0.41730  0.92380  0.72590  Biso   1.000  H
  C48      1.0000 0.32640  0.89644  0.58730  Biso   1.000  C
  H40      1.0000 0.25820  0.91750  0.58880  Biso   1.000  H
  Cd2      1.0000 0.65724  0.86834  0.82186  Biso   1.000  Cd
  N9       1.0000 0.50895  0.86224  0.91003  Biso   1.000  N
  N10      1.0000 0.20040  0.77508  0.05980  Biso   1.000  N
  N11      1.0000 0.13380  0.76077  0.13100  Biso   1.000  N
  N12      1.0000 0.80686  0.65836  0.24389  Biso   1.000  N
  N13      1.0000 0.79475  0.87823  0.97266  Biso   1.000  N
  N14      1.0000 0.05130  0.86782  0.32722  Biso   1.000  N
  N15      1.0000 0.13804  0.87867  0.41380  Biso   1.000  N
  N16      1.0000 0.51784  0.86834  0.67237  Biso   1.000  N
  C49      1.0000 0.48140  0.11477  0.99628  Biso   1.000  C
  H41      1.0000 0.42230  0.08680  0.97200  Biso   1.000  H
  C50      1.0000 0.55370  0.12991  0.93299  Biso   1.000  C
  H42      1.0000 0.54210  0.11380  0.86600  Biso   1.000  H
  C51      1.0000 0.64330  0.16906  0.96970  Biso   1.000  C
  C52      1.0000 0.65700  0.19071  0.06900  Biso   1.000  C
  H43      1.0000 0.71970  0.21590  0.09770  Biso   1.000  H
  C53      1.0000 0.57870  0.17514  0.12510  Biso   1.000  C
  H44      1.0000 0.58700  0.19160  0.19160  Biso   1.000  H
  C54      1.0000 0.72100  0.18735  0.90460  Biso   1.000  C
  H45      1.0000 0.71260  0.17150  0.83770  Biso   1.000  H
  C55      1.0000 0.94430  0.27643  0.90920  Biso   1.000  C
  H46      1.0000 0.94860  0.29000  0.97700  Biso   1.000  H
  C56      1.0000 0.02770  0.29868  0.85310  Biso   1.000  C
  C57      1.0000 0.02890  0.28049  0.75400  Biso   1.000  C
  H47      1.0000 0.97290  0.25370  0.71800  Biso   1.000  H
  C58      1.0000 0.11020  0.33915  0.90210  Biso   1.000  C
  H48      1.0000 0.11190  0.35210  0.96970  Biso   1.000  H
  C59      1.0000 0.19020  0.36024  0.85021  Biso   1.000  C
  H49      1.0000 0.24470  0.38880  0.88280  Biso   1.000  H
  C60      1.0000 0.11370  0.30242  0.70945  Biso   1.000  C
  H50      1.0000 0.11570  0.28910  0.64270  Biso   1.000  H
  C61      1.0000 0.11720  0.08416  0.02150  Biso   1.000  C
  H51      1.0000 0.11200  0.06270  0.08110  Biso   1.000  H
  C62      1.0000 0.03350  0.07537  0.93232  Biso   1.000  C
  H52      1.0000 0.97190  0.04870  0.93120  Biso   1.000  H
  C63      1.0000 0.04119  0.10624  0.84418  Biso   1.000  C
  C64      1.0000 0.13300  0.14501  0.84975  Biso   1.000  C
  H53      1.0000 0.14130  0.16630  0.79090  Biso   1.000  H
  C65      1.0000 0.21182  0.15196  0.94242  Biso   1.000  C
  H54      1.0000 0.27310  0.17920  0.94630  Biso   1.000  H
  C66      1.0000 0.95210  0.09787  0.74892  Biso   1.000  C
  H55      1.0000 0.89740  0.06700  0.74420  Biso   1.000  H
  C67      1.0000 0.76460  0.14324  0.58739  Biso   1.000  C
  H56      1.0000 0.75450  0.16340  0.64680  Biso   1.000  H
  C68      1.0000 0.66700  0.13770  0.49752  Biso   1.000  C
  C69      1.0000 0.56590  0.16749  0.49610  Biso   1.000  C
  H57      1.0000 0.55780  0.18990  0.55390  Biso   1.000  H
  C70      1.0000 0.47660  0.16436  0.40950  Biso   1.000  C
  H58      1.0000 0.40870  0.18630  0.40820  Biso   1.000  H
  C71      1.0000 0.57910  0.10083  0.33058  Biso   1.000  C
  H59      1.0000 0.58270  0.07620  0.27410  Biso   1.000  H
  C72      1.0000 0.67360  0.10356  0.41270  Biso   1.000  C
  H60      1.0000 0.74180  0.08250  0.41120  Biso   1.000  H
  Cd3      1.0000 0.34276  0.13166  0.17814  Biso   1.000  Cd
  N17      1.0000 0.49105  0.13776  0.08997  Biso   1.000  N
  N18      1.0000 0.79960  0.22492  0.94020  Biso   1.000  N
  N19      1.0000 0.86620  0.23923  0.86900  Biso   1.000  N
  N20      1.0000 0.19314  0.34164  0.75611  Biso   1.000  N
  N21      1.0000 0.20525  0.12177  0.02734  Biso   1.000  N
  N22      1.0000 0.94870  0.13218  0.67278  Biso   1.000  N
  N23      1.0000 0.86196  0.12133  0.58620  Biso   1.000  N
  N24      1.0000 0.48216  0.13166  0.32763  Biso   1.000  N
  C73      1.0000 0.48140  0.38523  0.49628  Biso   1.000  C
  H61      1.0000 0.42230  0.41320  0.47200  Biso   1.000  H
  C74      1.0000 0.55370  0.37009  0.43299  Biso   1.000  C
  H62      1.0000 0.54210  0.38620  0.36600  Biso   1.000  H
  C75      1.0000 0.64330  0.33094  0.46970  Biso   1.000  C
  C76      1.0000 0.65700  0.30929  0.56900  Biso   1.000  C
  H63      1.0000 0.71970  0.28410  0.59770  Biso   1.000  H
  C77      1.0000 0.57870  0.32486  0.62510  Biso   1.000  C
  H64      1.0000 0.58700  0.30840  0.69160  Biso   1.000  H
  C78      1.0000 0.72100  0.31265  0.40460  Biso   1.000  C
  H65      1.0000 0.71260  0.32850  0.33770  Biso   1.000  H
  C79      1.0000 0.94430  0.22357  0.40920  Biso   1.000  C
  H66      1.0000 0.94860  0.21000  0.47700  Biso   1.000  H
  C80      1.0000 0.02770  0.20132  0.35310  Biso   1.000  C
  C81      1.0000 0.02890  0.21951  0.25400  Biso   1.000  C
  H67      1.0000 0.97290  0.24630  0.21800  Biso   1.000  H
  C82      1.0000 0.11020  0.16085  0.40210  Biso   1.000  C
  H68      1.0000 0.11190  0.14790  0.46970  Biso   1.000  H
  C83      1.0000 0.19020  0.13976  0.35021  Biso   1.000  C
  H69      1.0000 0.24470  0.11120  0.38280  Biso   1.000  H
  C84      1.0000 0.11370  0.19758  0.20945  Biso   1.000  C
  H70      1.0000 0.11570  0.21090  0.14270  Biso   1.000  H
  C85      1.0000 0.11720  0.41584  0.52150  Biso   1.000  C
  H71      1.0000 0.11200  0.43730  0.58110  Biso   1.000  H
  C86      1.0000 0.03350  0.42463  0.43232  Biso   1.000  C
  H72      1.0000 0.97190  0.45130  0.43120  Biso   1.000  H
  C87      1.0000 0.04119  0.39376  0.34418  Biso   1.000  C
  C88      1.0000 0.13300  0.35499  0.34975  Biso   1.000  C
  H73      1.0000 0.14130  0.33370  0.29090  Biso   1.000  H
  C89      1.0000 0.21182  0.34804  0.44242  Biso   1.000  C
  H74      1.0000 0.27310  0.32080  0.44630  Biso   1.000  H
  C90      1.0000 0.95210  0.40213  0.24892  Biso   1.000  C
  H75      1.0000 0.89740  0.43300  0.24420  Biso   1.000  H
  C91      1.0000 0.76460  0.35676  0.08739  Biso   1.000  C
  H76      1.0000 0.75450  0.33660  0.14680  Biso   1.000  H
  C92      1.0000 0.66700  0.36230  0.99752  Biso   1.000  C
  C93      1.0000 0.56590  0.33251  0.99610  Biso   1.000  C
  H77      1.0000 0.55780  0.31010  0.05390  Biso   1.000  H
  C94      1.0000 0.47660  0.33564  0.90950  Biso   1.000  C
  H78      1.0000 0.40870  0.31370  0.90820  Biso   1.000  H
  C95      1.0000 0.57910  0.39917  0.83058  Biso   1.000  C
  H79      1.0000 0.58270  0.42380  0.77410  Biso   1.000  H
  C96      1.0000 0.67360  0.39644  0.91270  Biso   1.000  C
  H80      1.0000 0.74180  0.41750  0.91120  Biso   1.000  H
  Cd4      1.0000 0.34276  0.36834  0.67814  Biso   1.000  Cd
  N25      1.0000 0.49105  0.36224  0.58997  Biso   1.000  N
  N26      1.0000 0.79960  0.27508  0.44020  Biso   1.000  N
  N27      1.0000 0.86620  0.26077  0.36900  Biso   1.000  N
  N28      1.0000 0.19314  0.15836  0.25611  Biso   1.000  N
  N29      1.0000 0.20525  0.37823  0.52734  Biso   1.000  N
  N30      1.0000 0.94870  0.36782  0.17278  Biso   1.000  N
  N31      1.0000 0.86196  0.37867  0.08620  Biso   1.000  N
  N32      1.0000 0.48216  0.36834  0.82763  Biso   1.000  N
