data_image0
_cell_length_a       17.181
_cell_length_b       9.5978
_cell_length_c       24.677
_cell_angle_alpha    90
_cell_angle_beta     130.288
_cell_angle_gamma    90

_symmetry_space_group_name_H-M    "P 1"
_symmetry_int_tables_number       1

loop_
  _symmetry_equiv_pos_as_xyz
  'x, y, z'

loop_
  _atom_site_label
  _atom_site_occupancy
  _atom_site_fract_x
  _atom_site_fract_y
  _atom_site_fract_z
  _atom_site_thermal_displace_type
  _atom_site_B_iso_or_equiv
  _atom_site_type_symbol
  O1       1.0000 0.09560  0.85550  0.99420  Biso   1.000  O
  Zn1      1.0000 0.45750  0.30619  0.32971  Biso   1.000  Zn
  C1       1.0000 0.90380  0.99100  0.84790  Biso   1.000  C
  H1       1.0000 0.92010  0.89710  0.85850  Biso   1.000  H
  C2       1.0000 0.84350  0.03170  0.77750  Biso   1.000  C
  H2       1.0000 0.81840  0.96740  0.74140  Biso   1.000  H
  C3       1.0000 0.82220  0.17260  0.76330  Biso   1.000  C
  C4       1.0000 0.86380  0.26560  0.81790  Biso   1.000  C
  H3       1.0000 0.85280  0.36090  0.80910  Biso   1.000  H
  C5       1.0000 0.92290  0.21400  0.88710  Biso   1.000  C
  H4       1.0000 0.95160  0.27620  0.92460  Biso   1.000  H
  C6       1.0000 0.64500  0.19160  0.57580  Biso   1.000  C
  C7       1.0000 0.62770  0.33030  0.55670  Biso   1.000  C
  H5       1.0000 0.65190  0.40040  0.59020  Biso   1.000  H
  C8       1.0000 0.57270  0.36090  0.48560  Biso   1.000  C
  H6       1.0000 0.56070  0.45400  0.47180  Biso   1.000  H
  C9       1.0000 0.55150  0.13190  0.45460  Biso   1.000  C
  H7       1.0000 0.52530  0.06440  0.41960  Biso   1.000  H
  C10      1.0000 0.60500  0.08940  0.52430  Biso   1.000  C
  H8       1.0000 0.61380  0.99540  0.53610  Biso   1.000  H
  C11      1.0000 0.41820  0.56990  0.28240  Biso   1.000  C
  C12      1.0000 0.37770  0.69030  0.23110  Biso   1.000  C
  C13      1.0000 0.30960  0.66200  0.15820  Biso   1.000  C
  H9       1.0000 0.29340  0.57080  0.14160  Biso   1.000  H
  C14      1.0000 0.26680  0.77290  0.11140  Biso   1.000  C
  C15      1.0000 0.28990  0.90820  0.13500  Biso   1.000  C
  H10      1.0000 0.26190  0.98120  0.10260  Biso   1.000  H
  C16      1.0000 0.35560  0.93580  0.20760  Biso   1.000  C
  C17      1.0000 0.39920  0.82660  0.25550  Biso   1.000  C
  H11      1.0000 0.44290  0.84460  0.30410  Biso   1.000  H
  C18      1.0000 0.36910  0.08480  0.23010  Biso   1.000  C
  N1       1.0000 0.53630  0.26420  0.43600  Biso   1.000  N
  N2       1.0000 0.70260  0.14050  0.64720  Biso   1.000  N
  N3       1.0000 0.76110  0.22970  0.69290  Biso   1.000  N
  N4       1.0000 0.93940  0.07800  0.90100  Biso   1.000  N
  O2       1.0000 0.40610  0.44850  0.25680  Biso   1.000  O
  O3       1.0000 0.45870  0.59030  0.34540  Biso   1.000  O
  O4       1.0000 0.44170  0.11300  0.29530  Biso   1.000  O
  O5       1.0000 0.30700  0.17130  0.18460  Biso   1.000  O
  O6       1.0000 0.12710  0.60810  0.01070  Biso   1.000  O
  O7       1.0000 0.21680  0.75330  0.98720  Biso   1.000  O
  S1       1.0000 0.16933  0.74490  0.01807  Biso   1.000  S
  O8       1.0000 0.90440  0.14450  0.00580  Biso   1.000  O
  Zn2      1.0000 0.54250  0.69381  0.67029  Biso   1.000  Zn
  C19      1.0000 0.09620  0.00900  0.15210  Biso   1.000  C
  H12      1.0000 0.07990  0.10290  0.14150  Biso   1.000  H
  C20      1.0000 0.15650  0.96830  0.22250  Biso   1.000  C
  H13      1.0000 0.18160  0.03260  0.25860  Biso   1.000  H
  C21      1.0000 0.17780  0.82740  0.23670  Biso   1.000  C
  C22      1.0000 0.13620  0.73440  0.18210  Biso   1.000  C
  H14      1.0000 0.14720  0.63910  0.19090  Biso   1.000  H
  C23      1.0000 0.07710  0.78600  0.11290  Biso   1.000  C
  H15      1.0000 0.04840  0.72380  0.07540  Biso   1.000  H
  C24      1.0000 0.35500  0.80840  0.42420  Biso   1.000  C
  C25      1.0000 0.37230  0.66970  0.44330  Biso   1.000  C
  H16      1.0000 0.34810  0.59960  0.40980  Biso   1.000  H
  C26      1.0000 0.42730  0.63910  0.51440  Biso   1.000  C
  H17      1.0000 0.43930  0.54600  0.52820  Biso   1.000  H
  C27      1.0000 0.44850  0.86810  0.54540  Biso   1.000  C
  H18      1.0000 0.47470  0.93560  0.58040  Biso   1.000  H
  C28      1.0000 0.39500  0.91060  0.47570  Biso   1.000  C
  H19      1.0000 0.38620  0.00460  0.46390  Biso   1.000  H
  C29      1.0000 0.58180  0.43010  0.71760  Biso   1.000  C
  C30      1.0000 0.62230  0.30970  0.76890  Biso   1.000  C
  C31      1.0000 0.69040  0.33800  0.84180  Biso   1.000  C
  H20      1.0000 0.70660  0.42920  0.85840  Biso   1.000  H
  C32      1.0000 0.73320  0.22710  0.88860  Biso   1.000  C
  C33      1.0000 0.71010  0.09180  0.86500  Biso   1.000  C
  H21      1.0000 0.73810  0.01880  0.89740  Biso   1.000  H
  C34      1.0000 0.64440  0.06420  0.79240  Biso   1.000  C
  C35      1.0000 0.60080  0.17340  0.74450  Biso   1.000  C
  H22      1.0000 0.55710  0.15540  0.69590  Biso   1.000  H
  C36      1.0000 0.63090  0.91520  0.76990  Biso   1.000  C
  N5       1.0000 0.46370  0.73580  0.56400  Biso   1.000  N
  N6       1.0000 0.29740  0.85950  0.35280  Biso   1.000  N
  N7       1.0000 0.23890  0.77030  0.30710  Biso   1.000  N
  N8       1.0000 0.06060  0.92200  0.09900  Biso   1.000  N
  O9       1.0000 0.59390  0.55150  0.74320  Biso   1.000  O
  O10      1.0000 0.54130  0.40970  0.65460  Biso   1.000  O
  O11      1.0000 0.55830  0.88700  0.70470  Biso   1.000  O
  O12      1.0000 0.69300  0.82870  0.81540  Biso   1.000  O
  O13      1.0000 0.87290  0.39190  0.98930  Biso   1.000  O
  O14      1.0000 0.78320  0.24670  0.01280  Biso   1.000  O
  S2       1.0000 0.83067  0.25510  0.98193  Biso   1.000  S
  Zn3      1.0000 0.00000  0.00000  0.00000  Biso   1.000  Zn
  O15      1.0000 0.90440  0.85550  0.50580  Biso   1.000  O
  Zn4      1.0000 0.54250  0.30619  0.17029  Biso   1.000  Zn
  C37      1.0000 0.09620  0.99100  0.65210  Biso   1.000  C
  H23      1.0000 0.07990  0.89710  0.64150  Biso   1.000  H
  C38      1.0000 0.15650  0.03170  0.72250  Biso   1.000  C
  H24      1.0000 0.18160  0.96740  0.75860  Biso   1.000  H
  C39      1.0000 0.17780  0.17260  0.73670  Biso   1.000  C
  C40      1.0000 0.13620  0.26560  0.68210  Biso   1.000  C
  H25      1.0000 0.14720  0.36090  0.69090  Biso   1.000  H
  C41      1.0000 0.07710  0.21400  0.61290  Biso   1.000  C
  H26      1.0000 0.04840  0.27620  0.57540  Biso   1.000  H
  C42      1.0000 0.35500  0.19160  0.92420  Biso   1.000  C
  C43      1.0000 0.37230  0.33030  0.94330  Biso   1.000  C
  H27      1.0000 0.34810  0.40040  0.90980  Biso   1.000  H
  C44      1.0000 0.42730  0.36090  0.01440  Biso   1.000  C
  H28      1.0000 0.43930  0.45400  0.02820  Biso   1.000  H
  C45      1.0000 0.44850  0.13190  0.04540  Biso   1.000  C
  H29      1.0000 0.47470  0.06440  0.08040  Biso   1.000  H
  C46      1.0000 0.39500  0.08940  0.97570  Biso   1.000  C
  H30      1.0000 0.38620  0.99540  0.96390  Biso   1.000  H
  C47      1.0000 0.58180  0.56990  0.21760  Biso   1.000  C
  C48      1.0000 0.62230  0.69030  0.26890  Biso   1.000  C
  C49      1.0000 0.69040  0.66200  0.34180  Biso   1.000  C
  H31      1.0000 0.70660  0.57080  0.35840  Biso   1.000  H
  C50      1.0000 0.73320  0.77290  0.38860  Biso   1.000  C
  C51      1.0000 0.71010  0.90820  0.36500  Biso   1.000  C
  H32      1.0000 0.73810  0.98120  0.39740  Biso   1.000  H
  C52      1.0000 0.64440  0.93580  0.29240  Biso   1.000  C
  C53      1.0000 0.60080  0.82660  0.24450  Biso   1.000  C
  H33      1.0000 0.55710  0.84460  0.19590  Biso   1.000  H
  C54      1.0000 0.63090  0.08480  0.26990  Biso   1.000  C
  N9       1.0000 0.46370  0.26420  0.06400  Biso   1.000  N
  N10      1.0000 0.29740  0.14050  0.85280  Biso   1.000  N
  N11      1.0000 0.23890  0.22970  0.80710  Biso   1.000  N
  N12      1.0000 0.06060  0.07800  0.59900  Biso   1.000  N
  O16      1.0000 0.59390  0.44850  0.24320  Biso   1.000  O
  O17      1.0000 0.54130  0.59030  0.15460  Biso   1.000  O
  O18      1.0000 0.55830  0.11300  0.20470  Biso   1.000  O
  O19      1.0000 0.69300  0.17130  0.31540  Biso   1.000  O
  O20      1.0000 0.87290  0.60810  0.48930  Biso   1.000  O
  O21      1.0000 0.78320  0.75330  0.51280  Biso   1.000  O
  S3       1.0000 0.83067  0.74490  0.48193  Biso   1.000  S
  O22      1.0000 0.09560  0.14450  0.49420  Biso   1.000  O
  Zn5      1.0000 0.45750  0.69381  0.82971  Biso   1.000  Zn
  C55      1.0000 0.90380  0.00900  0.34790  Biso   1.000  C
  H34      1.0000 0.92010  0.10290  0.35850  Biso   1.000  H
  C56      1.0000 0.84350  0.96830  0.27750  Biso   1.000  C
  H35      1.0000 0.81840  0.03260  0.24140  Biso   1.000  H
  C57      1.0000 0.82220  0.82740  0.26330  Biso   1.000  C
  C58      1.0000 0.86380  0.73440  0.31790  Biso   1.000  C
  H36      1.0000 0.85280  0.63910  0.30910  Biso   1.000  H
  C59      1.0000 0.92290  0.78600  0.38710  Biso   1.000  C
  H37      1.0000 0.95160  0.72380  0.42460  Biso   1.000  H
  C60      1.0000 0.64500  0.80840  0.07580  Biso   1.000  C
  C61      1.0000 0.62770  0.66970  0.05670  Biso   1.000  C
  H38      1.0000 0.65190  0.59960  0.09020  Biso   1.000  H
  C62      1.0000 0.57270  0.63910  0.98560  Biso   1.000  C
  H39      1.0000 0.56070  0.54600  0.97180  Biso   1.000  H
  C63      1.0000 0.55150  0.86810  0.95460  Biso   1.000  C
  H40      1.0000 0.52530  0.93560  0.91960  Biso   1.000  H
  C64      1.0000 0.60500  0.91060  0.02430  Biso   1.000  C
  H41      1.0000 0.61380  0.00460  0.03610  Biso   1.000  H
  C65      1.0000 0.41820  0.43010  0.78240  Biso   1.000  C
  C66      1.0000 0.37770  0.30970  0.73110  Biso   1.000  C
  C67      1.0000 0.30960  0.33800  0.65820  Biso   1.000  C
  H42      1.0000 0.29340  0.42920  0.64160  Biso   1.000  H
  C68      1.0000 0.26680  0.22710  0.61140  Biso   1.000  C
  C69      1.0000 0.28990  0.09180  0.63500  Biso   1.000  C
  H43      1.0000 0.26190  0.01880  0.60260  Biso   1.000  H
  C70      1.0000 0.35560  0.06420  0.70760  Biso   1.000  C
  C71      1.0000 0.39920  0.17340  0.75550  Biso   1.000  C
  H44      1.0000 0.44290  0.15540  0.80410  Biso   1.000  H
  C72      1.0000 0.36910  0.91520  0.73010  Biso   1.000  C
  N13      1.0000 0.53630  0.73580  0.93600  Biso   1.000  N
  N14      1.0000 0.70260  0.85950  0.14720  Biso   1.000  N
  N15      1.0000 0.76110  0.77030  0.19290  Biso   1.000  N
  N16      1.0000 0.93940  0.92200  0.40100  Biso   1.000  N
  O23      1.0000 0.40610  0.55150  0.75680  Biso   1.000  O
  O24      1.0000 0.45870  0.40970  0.84540  Biso   1.000  O
  O25      1.0000 0.44170  0.88700  0.79530  Biso   1.000  O
  O26      1.0000 0.30700  0.82870  0.68460  Biso   1.000  O
  O27      1.0000 0.12710  0.39190  0.51070  Biso   1.000  O
  O28      1.0000 0.21680  0.24670  0.48720  Biso   1.000  O
  S4       1.0000 0.16933  0.25510  0.51807  Biso   1.000  S
  Zn6      1.0000 0.00000  0.00000  0.50000  Biso   1.000  Zn
