data_image0
_cell_length_a       12.3986
_cell_length_b       16.9364
_cell_length_c       17.5528
_cell_angle_alpha    90
_cell_angle_beta     105.206
_cell_angle_gamma    90

_symmetry_space_group_name_H-M    "P 1"
_symmetry_int_tables_number       1

loop_
  _symmetry_equiv_pos_as_xyz
  'x, y, z'

loop_
  _atom_site_label
  _atom_site_occupancy
  _atom_site_fract_x
  _atom_site_fract_y
  _atom_site_fract_z
  _atom_site_thermal_displace_type
  _atom_site_B_iso_or_equiv
  _atom_site_type_symbol
  Cd1      1.0000 0.16814  0.51875  0.29594  Biso   1.000  Cd
  N1       1.0000 0.08020  0.61650  0.21410  Biso   1.000  N
  N2       1.0000 0.97820  0.71950  0.18270  Biso   1.000  N
  N3       1.0000 0.06230  0.72960  0.14620  Biso   1.000  N
  N4       1.0000 0.62380  0.96500  0.11260  Biso   1.000  N
  N5       1.0000 0.60910  0.03470  0.07620  Biso   1.000  N
  N6       1.0000 0.47940  0.01070  0.14340  Biso   1.000  N
  N7       1.0000 0.12870  0.40470  0.22600  Biso   1.000  N
  N8       1.0000 0.13770  0.27730  0.19370  Biso   1.000  N
  N9       1.0000 0.08190  0.31880  0.13070  Biso   1.000  N
  N10      1.0000 0.89510  0.08630  0.00940  Biso   1.000  N
  N11      1.0000 0.97160  0.08730  0.96580  Biso   1.000  N
  N12      1.0000 0.79800  0.04500  0.89480  Biso   1.000  N
  C1       1.0000 0.11950  0.66580  0.16750  Biso   1.000  C
  H1       1.0000 0.18380  0.65470  0.15160  Biso   1.000  H
  C2       1.0000 0.99120  0.65240  0.22200  Biso   1.000  C
  H2       1.0000 0.94380  0.63360  0.25110  Biso   1.000  H
  C3       1.0000 0.89310  0.78020  0.17880  Biso   1.000  C
  H3       1.0000 0.93010  0.82920  0.19900  Biso   1.000  H
  H4       1.0000 0.84690  0.76480  0.21310  Biso   1.000  H
  C4       1.0000 0.82090  0.79440  0.09980  Biso   1.000  C
  H5       1.0000 0.86340  0.82180  0.06870  Biso   1.000  H
  H6       1.0000 0.79740  0.74410  0.07460  Biso   1.000  H
  C5       1.0000 0.70920  0.84700  0.10010  Biso   1.000  C
  H7       1.0000 0.67410  0.82660  0.13930  Biso   1.000  H
  H8       1.0000 0.65560  0.84430  0.04880  Biso   1.000  H
  C6       1.0000 0.74170  0.92160  0.11700  Biso   1.000  C
  H9       1.0000 0.79250  0.92590  0.16930  Biso   1.000  H
  H10      1.0000 0.77720  0.94310  0.07850  Biso   1.000  H
  C7       1.0000 0.54880  0.94980  0.15230  Biso   1.000  C
  H11      1.0000 0.54540  0.90430  0.18130  Biso   1.000  H
  C8       1.0000 0.51950  0.05990  0.09630  Biso   1.000  C
  H12      1.0000 0.48610  0.10810  0.07920  Biso   1.000  H
  C9       1.0000 0.16330  0.33090  0.24880  Biso   1.000  C
  H13      1.0000 0.20270  0.31900  0.30030  Biso   1.000  H
  C10      1.0000 0.07670  0.39370  0.15090  Biso   1.000  C
  H14      1.0000 0.04120  0.43330  0.11670  Biso   1.000  H
  C11      1.0000 0.03370  0.28030  0.05440  Biso   1.000  C
  H15      1.0000 0.03930  0.31590  0.01230  Biso   1.000  H
  H16      1.0000 0.07690  0.23340  0.05060  Biso   1.000  H
  C12      1.0000 0.91480  0.25760  0.04300  Biso   1.000  C
  H17      1.0000 0.87290  0.30490  0.04750  Biso   1.000  H
  H18      1.0000 0.88680  0.23810  0.98950  Biso   1.000  H
  C13      1.0000 0.88950  0.19650  0.09830  Biso   1.000  C
  H19      1.0000 0.80920  0.19530  0.09100  Biso   1.000  H
  H20      1.0000 0.92280  0.21400  0.15200  Biso   1.000  H
  C14      1.0000 0.92530  0.11890  0.09130  Biso   1.000  C
  H21      1.0000 0.00600  0.11710  0.11160  Biso   1.000  H
  H22      1.0000 0.89370  0.08480  0.12430  Biso   1.000  H
  C15      1.0000 0.91010  0.06080  0.89660  Biso   1.000  C
  H23      1.0000 0.93870  0.05340  0.85320  Biso   1.000  H
  C16      1.0000 0.79250  0.06770  0.96570  Biso   1.000  C
  H24      1.0000 0.72750  0.07030  0.98270  Biso   1.000  H
  Cd2      1.0000 0.33186  0.01875  0.20406  Biso   1.000  Cd
  N13      1.0000 0.41980  0.11650  0.28590  Biso   1.000  N
  N14      1.0000 0.52180  0.21950  0.31730  Biso   1.000  N
  N15      1.0000 0.43770  0.22960  0.35380  Biso   1.000  N
  N16      1.0000 0.87620  0.46500  0.38740  Biso   1.000  N
  N17      1.0000 0.89090  0.53470  0.42380  Biso   1.000  N
  N18      1.0000 0.02060  0.51070  0.35660  Biso   1.000  N
  N19      1.0000 0.37130  0.90470  0.27400  Biso   1.000  N
  N20      1.0000 0.36230  0.77730  0.30630  Biso   1.000  N
  N21      1.0000 0.41810  0.81880  0.36930  Biso   1.000  N
  N22      1.0000 0.60490  0.58630  0.49060  Biso   1.000  N
  N23      1.0000 0.52840  0.58730  0.53420  Biso   1.000  N
  N24      1.0000 0.70200  0.54500  0.60520  Biso   1.000  N
  C17      1.0000 0.38050  0.16580  0.33250  Biso   1.000  C
  H25      1.0000 0.31620  0.15470  0.34840  Biso   1.000  H
  C18      1.0000 0.50880  0.15240  0.27800  Biso   1.000  C
  H26      1.0000 0.55620  0.13360  0.24890  Biso   1.000  H
  C19      1.0000 0.60690  0.28020  0.32120  Biso   1.000  C
  H27      1.0000 0.56990  0.32920  0.30100  Biso   1.000  H
  H28      1.0000 0.65310  0.26480  0.28690  Biso   1.000  H
  C20      1.0000 0.67910  0.29440  0.40020  Biso   1.000  C
  H29      1.0000 0.63660  0.32180  0.43130  Biso   1.000  H
  H30      1.0000 0.70260  0.24410  0.42540  Biso   1.000  H
  C21      1.0000 0.79080  0.34700  0.39990  Biso   1.000  C
  H31      1.0000 0.82590  0.32660  0.36070  Biso   1.000  H
  H32      1.0000 0.84440  0.34430  0.45120  Biso   1.000  H
  C22      1.0000 0.75830  0.42160  0.38300  Biso   1.000  C
  H33      1.0000 0.70750  0.42590  0.33070  Biso   1.000  H
  H34      1.0000 0.72280  0.44310  0.42150  Biso   1.000  H
  C23      1.0000 0.95120  0.44980  0.34770  Biso   1.000  C
  H35      1.0000 0.95460  0.40430  0.31870  Biso   1.000  H
  C24      1.0000 0.98050  0.55990  0.40370  Biso   1.000  C
  H36      1.0000 0.01390  0.60810  0.42080  Biso   1.000  H
  C25      1.0000 0.33670  0.83090  0.25120  Biso   1.000  C
  H37      1.0000 0.29730  0.81900  0.19970  Biso   1.000  H
  C26      1.0000 0.42330  0.89370  0.34910  Biso   1.000  C
  H38      1.0000 0.45880  0.93330  0.38330  Biso   1.000  H
  C27      1.0000 0.46630  0.78030  0.44560  Biso   1.000  C
  H39      1.0000 0.46070  0.81590  0.48770  Biso   1.000  H
  H40      1.0000 0.42310  0.73340  0.44940  Biso   1.000  H
  C28      1.0000 0.58520  0.75760  0.45700  Biso   1.000  C
  H41      1.0000 0.62710  0.80490  0.45250  Biso   1.000  H
  H42      1.0000 0.61320  0.73810  0.51050  Biso   1.000  H
  C29      1.0000 0.61050  0.69650  0.40170  Biso   1.000  C
  H43      1.0000 0.69080  0.69530  0.40900  Biso   1.000  H
  H44      1.0000 0.57720  0.71400  0.34800  Biso   1.000  H
  C30      1.0000 0.57470  0.61890  0.40870  Biso   1.000  C
  H45      1.0000 0.49400  0.61710  0.38840  Biso   1.000  H
  H46      1.0000 0.60630  0.58480  0.37570  Biso   1.000  H
  C31      1.0000 0.58990  0.56080  0.60340  Biso   1.000  C
  H47      1.0000 0.56130  0.55340  0.64680  Biso   1.000  H
  C32      1.0000 0.70750  0.56770  0.53430  Biso   1.000  C
  H48      1.0000 0.77250  0.57030  0.51730  Biso   1.000  H
  Cd3      1.0000 0.83186  0.48125  0.70406  Biso   1.000  Cd
  N25      1.0000 0.91980  0.38350  0.78590  Biso   1.000  N
  N26      1.0000 0.02180  0.28050  0.81730  Biso   1.000  N
  N27      1.0000 0.93770  0.27040  0.85380  Biso   1.000  N
  N28      1.0000 0.37620  0.03500  0.88740  Biso   1.000  N
  N29      1.0000 0.39090  0.96530  0.92380  Biso   1.000  N
  N30      1.0000 0.52060  0.98930  0.85660  Biso   1.000  N
  N31      1.0000 0.87130  0.59530  0.77400  Biso   1.000  N
  N32      1.0000 0.86230  0.72270  0.80630  Biso   1.000  N
  N33      1.0000 0.91810  0.68120  0.86930  Biso   1.000  N
  N34      1.0000 0.10490  0.91370  0.99060  Biso   1.000  N
  N35      1.0000 0.02840  0.91270  0.03420  Biso   1.000  N
  N36      1.0000 0.20200  0.95500  0.10520  Biso   1.000  N
  C33      1.0000 0.88050  0.33420  0.83250  Biso   1.000  C
  H49      1.0000 0.81620  0.34530  0.84840  Biso   1.000  H
  C34      1.0000 0.00880  0.34760  0.77800  Biso   1.000  C
  H50      1.0000 0.05620  0.36640  0.74890  Biso   1.000  H
  C35      1.0000 0.10690  0.21980  0.82120  Biso   1.000  C
  H51      1.0000 0.06990  0.17080  0.80100  Biso   1.000  H
  H52      1.0000 0.15310  0.23520  0.78690  Biso   1.000  H
  C36      1.0000 0.17910  0.20560  0.90020  Biso   1.000  C
  H53      1.0000 0.13660  0.17820  0.93130  Biso   1.000  H
  H54      1.0000 0.20260  0.25590  0.92540  Biso   1.000  H
  C37      1.0000 0.29080  0.15300  0.89990  Biso   1.000  C
  H55      1.0000 0.32590  0.17340  0.86070  Biso   1.000  H
  H56      1.0000 0.34440  0.15570  0.95120  Biso   1.000  H
  C38      1.0000 0.25830  0.07840  0.88300  Biso   1.000  C
  H57      1.0000 0.20750  0.07410  0.83070  Biso   1.000  H
  H58      1.0000 0.22280  0.05690  0.92150  Biso   1.000  H
  C39      1.0000 0.45120  0.05020  0.84770  Biso   1.000  C
  H59      1.0000 0.45460  0.09570  0.81870  Biso   1.000  H
  C40      1.0000 0.48050  0.94010  0.90370  Biso   1.000  C
  H60      1.0000 0.51390  0.89190  0.92080  Biso   1.000  H
  C41      1.0000 0.83670  0.66910  0.75120  Biso   1.000  C
  H61      1.0000 0.79730  0.68100  0.69970  Biso   1.000  H
  C42      1.0000 0.92330  0.60630  0.84910  Biso   1.000  C
  H62      1.0000 0.95880  0.56670  0.88330  Biso   1.000  H
  C43      1.0000 0.96630  0.71970  0.94560  Biso   1.000  C
  H63      1.0000 0.96070  0.68410  0.98770  Biso   1.000  H
  H64      1.0000 0.92310  0.76660  0.94940  Biso   1.000  H
  C44      1.0000 0.08520  0.74240  0.95700  Biso   1.000  C
  H65      1.0000 0.12710  0.69510  0.95250  Biso   1.000  H
  H66      1.0000 0.11320  0.76190  0.01050  Biso   1.000  H
  C45      1.0000 0.11050  0.80350  0.90170  Biso   1.000  C
  H67      1.0000 0.19080  0.80470  0.90900  Biso   1.000  H
  H68      1.0000 0.07720  0.78600  0.84800  Biso   1.000  H
  C46      1.0000 0.07470  0.88110  0.90870  Biso   1.000  C
  H69      1.0000 0.99400  0.88290  0.88840  Biso   1.000  H
  H70      1.0000 0.10630  0.91520  0.87570  Biso   1.000  H
  C47      1.0000 0.08990  0.93920  0.10340  Biso   1.000  C
  H71      1.0000 0.06130  0.94660  0.14680  Biso   1.000  H
  C48      1.0000 0.20750  0.93230  0.03430  Biso   1.000  C
  H72      1.0000 0.27250  0.92970  0.01730  Biso   1.000  H
  Cd4      1.0000 0.66814  0.98125  0.79594  Biso   1.000  Cd
  N37      1.0000 0.58020  0.88350  0.71410  Biso   1.000  N
  N38      1.0000 0.47820  0.78050  0.68270  Biso   1.000  N
  N39      1.0000 0.56230  0.77040  0.64620  Biso   1.000  N
  N40      1.0000 0.12380  0.53500  0.61260  Biso   1.000  N
  N41      1.0000 0.10910  0.46530  0.57620  Biso   1.000  N
  N42      1.0000 0.97940  0.48930  0.64340  Biso   1.000  N
  N43      1.0000 0.62870  0.09530  0.72600  Biso   1.000  N
  N44      1.0000 0.63770  0.22270  0.69370  Biso   1.000  N
  N45      1.0000 0.58190  0.18120  0.63070  Biso   1.000  N
  N46      1.0000 0.39510  0.41370  0.50940  Biso   1.000  N
  N47      1.0000 0.47160  0.41270  0.46580  Biso   1.000  N
  N48      1.0000 0.29800  0.45500  0.39480  Biso   1.000  N
  C49      1.0000 0.61950  0.83420  0.66750  Biso   1.000  C
  H73      1.0000 0.68380  0.84530  0.65160  Biso   1.000  H
  C50      1.0000 0.49120  0.84760  0.72200  Biso   1.000  C
  H74      1.0000 0.44380  0.86640  0.75110  Biso   1.000  H
  C51      1.0000 0.39310  0.71980  0.67880  Biso   1.000  C
  H75      1.0000 0.43010  0.67080  0.69900  Biso   1.000  H
  H76      1.0000 0.34690  0.73520  0.71310  Biso   1.000  H
  C52      1.0000 0.32090  0.70560  0.59980  Biso   1.000  C
  H77      1.0000 0.36340  0.67820  0.56870  Biso   1.000  H
  H78      1.0000 0.29740  0.75590  0.57460  Biso   1.000  H
  C53      1.0000 0.20920  0.65300  0.60010  Biso   1.000  C
  H79      1.0000 0.17410  0.67340  0.63930  Biso   1.000  H
  H80      1.0000 0.15560  0.65570  0.54880  Biso   1.000  H
  C54      1.0000 0.24170  0.57840  0.61700  Biso   1.000  C
  H81      1.0000 0.29250  0.57410  0.66930  Biso   1.000  H
  H82      1.0000 0.27720  0.55690  0.57850  Biso   1.000  H
  C55      1.0000 0.04880  0.55020  0.65230  Biso   1.000  C
  H83      1.0000 0.04540  0.59570  0.68130  Biso   1.000  H
  C56      1.0000 0.01950  0.44010  0.59630  Biso   1.000  C
  H84      1.0000 0.98610  0.39190  0.57920  Biso   1.000  H
  C57      1.0000 0.66330  0.16910  0.74880  Biso   1.000  C
  H85      1.0000 0.70270  0.18100  0.80030  Biso   1.000  H
  C58      1.0000 0.57670  0.10630  0.65090  Biso   1.000  C
  H86      1.0000 0.54120  0.06670  0.61670  Biso   1.000  H
  C59      1.0000 0.53370  0.21970  0.55440  Biso   1.000  C
  H87      1.0000 0.53930  0.18410  0.51230  Biso   1.000  H
  H88      1.0000 0.57690  0.26660  0.55060  Biso   1.000  H
  C60      1.0000 0.41480  0.24240  0.54300  Biso   1.000  C
  H89      1.0000 0.37290  0.19510  0.54750  Biso   1.000  H
  H90      1.0000 0.38680  0.26190  0.48950  Biso   1.000  H
  C61      1.0000 0.38950  0.30350  0.59830  Biso   1.000  C
  H91      1.0000 0.30920  0.30470  0.59100  Biso   1.000  H
  H92      1.0000 0.42280  0.28600  0.65200  Biso   1.000  H
  C62      1.0000 0.42530  0.38110  0.59130  Biso   1.000  C
  H93      1.0000 0.50600  0.38290  0.61160  Biso   1.000  H
  H94      1.0000 0.39370  0.41520  0.62430  Biso   1.000  H
  C63      1.0000 0.41010  0.43920  0.39660  Biso   1.000  C
  H95      1.0000 0.43870  0.44660  0.35320  Biso   1.000  H
  C64      1.0000 0.29250  0.43230  0.46570  Biso   1.000  C
  H96      1.0000 0.22750  0.42970  0.48270  Biso   1.000  H
