data_image0
_cell_length_a       11.6542
_cell_length_b       19.719
_cell_length_c       15.0898
_cell_angle_alpha    90
_cell_angle_beta     91.307
_cell_angle_gamma    90

_symmetry_space_group_name_H-M    "P 1"
_symmetry_int_tables_number       1

loop_
  _symmetry_equiv_pos_as_xyz
  'x, y, z'

loop_
  _atom_site_label
  _atom_site_occupancy
  _atom_site_fract_x
  _atom_site_fract_y
  _atom_site_fract_z
  _atom_site_thermal_displace_type
  _atom_site_B_iso_or_equiv
  _atom_site_type_symbol
  Cd1      1.0000 0.53639  0.25202  0.29096  Biso   1.000  Cd
  N1       1.0000 0.37500  0.18112  0.31573  Biso   1.000  N
  N2       1.0000 0.03721  0.05272  0.44120  Biso   1.000  N
  N3       1.0000 0.67804  0.32667  0.24774  Biso   1.000  N
  N4       1.0000 0.95311  0.47999  0.08307  Biso   1.000  N
  N5       1.0000 0.64024  0.16477  0.22581  Biso   1.000  N
  N6       1.0000 0.88641  0.00991  0.03394  Biso   1.000  N
  C1       1.0000 0.31248  0.19176  0.38845  Biso   1.000  C
  H1       1.0000 0.34050  0.22290  0.43180  Biso   1.000  H
  C2       1.0000 0.20987  0.15948  0.40270  Biso   1.000  C
  H2       1.0000 0.16840  0.16870  0.45480  Biso   1.000  H
  C3       1.0000 0.16713  0.11346  0.34098  Biso   1.000  C
  C4       1.0000 0.23219  0.10128  0.26687  Biso   1.000  C
  H3       1.0000 0.20710  0.06920  0.22370  Biso   1.000  H
  C5       1.0000 0.33415  0.13623  0.25621  Biso   1.000  C
  H4       1.0000 0.37690  0.12800  0.20450  Biso   1.000  H
  C6       1.0000 0.05079  0.08114  0.35239  Biso   1.000  C
  H5       1.0000 0.99040  0.11560  0.34120  Biso   1.000  H
  H6       1.0000 0.04020  0.04460  0.30790  Biso   1.000  H
  C7       1.0000 0.91555  0.04115  0.45838  Biso   1.000  C
  H7       1.0000 0.88290  0.00960  0.41340  Biso   1.000  H
  H8       1.0000 0.87330  0.08460  0.45360  Biso   1.000  H
  C8       1.0000 0.09911  0.98853  0.44992  Biso   1.000  C
  H9       1.0000 0.18170  0.99610  0.43940  Biso   1.000  H
  H10      1.0000 0.06960  0.95610  0.40480  Biso   1.000  H
  C9       1.0000 0.67912  0.35632  0.16755  Biso   1.000  C
  H11      1.0000 0.61570  0.34900  0.12800  Biso   1.000  H
  C10      1.0000 0.76772  0.39686  0.13988  Biso   1.000  C
  H12      1.0000 0.76470  0.41680  0.08260  Biso   1.000  H
  C11      1.0000 0.86151  0.40833  0.19647  Biso   1.000  C
  C12      1.0000 0.86060  0.37773  0.27919  Biso   1.000  C
  H13      1.0000 0.92320  0.38410  0.31980  Biso   1.000  H
  C13      1.0000 0.76853  0.33805  0.30230  Biso   1.000  C
  H14      1.0000 0.76920  0.31780  0.35950  Biso   1.000  H
  C14      1.0000 0.95987  0.45436  0.17334  Biso   1.000  C
  H15      1.0000 0.96140  0.49330  0.21480  Biso   1.000  H
  H16      1.0000 0.03280  0.42920  0.18180  Biso   1.000  H
  C15      1.0000 0.01783  0.54311  0.07393  Biso   1.000  C
  H17      1.0000 0.10000  0.53480  0.08790  Biso   1.000  H
  H18      1.0000 0.98940  0.57720  0.11620  Biso   1.000  H
  C16      1.0000 0.99563  0.43019  0.01973  Biso   1.000  C
  H19      1.0000 0.95220  0.38730  0.02540  Biso   1.000  H
  H20      1.0000 0.07760  0.42060  0.03300  Biso   1.000  H
  C17      1.0000 0.69808  0.11797  0.27322  Biso   1.000  C
  H21      1.0000 0.70180  0.12240  0.33590  Biso   1.000  H
  C18      1.0000 0.75246  0.06359  0.23454  Biso   1.000  C
  H22      1.0000 0.79190  0.03130  0.27070  Biso   1.000  H
  C19      1.0000 0.74968  0.05590  0.14337  Biso   1.000  C
  C20      1.0000 0.69331  0.10597  0.09407  Biso   1.000  C
  H23      1.0000 0.69160  0.10400  0.03120  Biso   1.000  H
  C21      1.0000 0.64011  0.15828  0.13703  Biso   1.000  C
  H24      1.0000 0.60120  0.19160  0.10220  Biso   1.000  H
  C22      1.0000 0.80042  0.99385  0.10047  Biso   1.000  C
  H25      1.0000 0.83650  0.96510  0.14710  Biso   1.000  H
  H26      1.0000 0.73780  0.96730  0.07180  Biso   1.000  H
  C23      1.0000 0.98895  0.03959  0.07738  Biso   1.000  C
  H27      1.0000 0.01920  0.00800  0.12320  Biso   1.000  H
  H28      1.0000 0.96790  0.08250  0.10700  Biso   1.000  H
  C24      1.0000 0.91944  0.94667  0.98966  Biso   1.000  C
  H29      1.0000 0.85130  0.92650  0.95950  Biso   1.000  H
  H30      1.0000 0.94870  0.91380  0.03430  Biso   1.000  H
  Cd2      1.0000 0.46361  0.74798  0.70904  Biso   1.000  Cd
  N7       1.0000 0.62500  0.81888  0.68427  Biso   1.000  N
  N8       1.0000 0.96279  0.94728  0.55880  Biso   1.000  N
  N9       1.0000 0.32196  0.67333  0.75226  Biso   1.000  N
  N10      1.0000 0.04689  0.52001  0.91693  Biso   1.000  N
  N11      1.0000 0.35976  0.83523  0.77419  Biso   1.000  N
  N12      1.0000 0.11359  0.99009  0.96606  Biso   1.000  N
  C25      1.0000 0.68752  0.80824  0.61155  Biso   1.000  C
  H31      1.0000 0.65950  0.77710  0.56820  Biso   1.000  H
  C26      1.0000 0.79013  0.84052  0.59730  Biso   1.000  C
  H32      1.0000 0.83160  0.83130  0.54520  Biso   1.000  H
  C27      1.0000 0.83287  0.88654  0.65902  Biso   1.000  C
  C28      1.0000 0.76781  0.89872  0.73313  Biso   1.000  C
  H33      1.0000 0.79290  0.93080  0.77630  Biso   1.000  H
  C29      1.0000 0.66585  0.86377  0.74379  Biso   1.000  C
  H34      1.0000 0.62310  0.87200  0.79550  Biso   1.000  H
  C30      1.0000 0.94921  0.91886  0.64761  Biso   1.000  C
  H35      1.0000 0.00960  0.88440  0.65880  Biso   1.000  H
  H36      1.0000 0.95980  0.95540  0.69210  Biso   1.000  H
  C31      1.0000 0.08445  0.95885  0.54162  Biso   1.000  C
  H37      1.0000 0.11710  0.99040  0.58660  Biso   1.000  H
  H38      1.0000 0.12670  0.91540  0.54640  Biso   1.000  H
  C32      1.0000 0.90089  0.01147  0.55008  Biso   1.000  C
  H39      1.0000 0.81830  0.00390  0.56060  Biso   1.000  H
  H40      1.0000 0.93040  0.04390  0.59520  Biso   1.000  H
  C33      1.0000 0.32088  0.64368  0.83245  Biso   1.000  C
  H41      1.0000 0.38430  0.65100  0.87200  Biso   1.000  H
  C34      1.0000 0.23228  0.60314  0.86012  Biso   1.000  C
  H42      1.0000 0.23530  0.58320  0.91740  Biso   1.000  H
  C35      1.0000 0.13849  0.59167  0.80353  Biso   1.000  C
  C36      1.0000 0.13940  0.62227  0.72081  Biso   1.000  C
  H43      1.0000 0.07680  0.61590  0.68020  Biso   1.000  H
  C37      1.0000 0.23147  0.66195  0.69770  Biso   1.000  C
  H44      1.0000 0.23080  0.68220  0.64050  Biso   1.000  H
  C38      1.0000 0.04013  0.54564  0.82666  Biso   1.000  C
  H45      1.0000 0.03860  0.50670  0.78520  Biso   1.000  H
  H46      1.0000 0.96720  0.57080  0.81820  Biso   1.000  H
  C39      1.0000 0.98217  0.45689  0.92607  Biso   1.000  C
  H47      1.0000 0.90000  0.46520  0.91210  Biso   1.000  H
  H48      1.0000 0.01060  0.42280  0.88380  Biso   1.000  H
  C40      1.0000 0.00437  0.56981  0.98027  Biso   1.000  C
  H49      1.0000 0.04780  0.61270  0.97460  Biso   1.000  H
  H50      1.0000 0.92240  0.57940  0.96700  Biso   1.000  H
  C41      1.0000 0.30192  0.88203  0.72678  Biso   1.000  C
  H51      1.0000 0.29820  0.87760  0.66410  Biso   1.000  H
  C42      1.0000 0.24754  0.93641  0.76546  Biso   1.000  C
  H52      1.0000 0.20810  0.96870  0.72930  Biso   1.000  H
  C43      1.0000 0.25032  0.94410  0.85663  Biso   1.000  C
  C44      1.0000 0.30669  0.89403  0.90593  Biso   1.000  C
  H53      1.0000 0.30840  0.89600  0.96880  Biso   1.000  H
  C45      1.0000 0.35989  0.84172  0.86297  Biso   1.000  C
  H54      1.0000 0.39880  0.80840  0.89780  Biso   1.000  H
  C46      1.0000 0.19958  0.00615  0.89953  Biso   1.000  C
  H55      1.0000 0.16350  0.03490  0.85290  Biso   1.000  H
  H56      1.0000 0.26220  0.03270  0.92820  Biso   1.000  H
  C47      1.0000 0.01105  0.96041  0.92262  Biso   1.000  C
  H57      1.0000 0.98080  0.99200  0.87680  Biso   1.000  H
  H58      1.0000 0.03210  0.91750  0.89300  Biso   1.000  H
  C48      1.0000 0.08056  0.05333  0.01034  Biso   1.000  C
  H59      1.0000 0.14870  0.07350  0.04050  Biso   1.000  H
  H60      1.0000 0.05130  0.08620  0.96570  Biso   1.000  H
  Cd3      1.0000 0.96361  0.75202  0.20904  Biso   1.000  Cd
  N13      1.0000 0.12500  0.68112  0.18427  Biso   1.000  N
  N14      1.0000 0.46279  0.55272  0.05880  Biso   1.000  N
  N15      1.0000 0.82196  0.82667  0.25226  Biso   1.000  N
  N16      1.0000 0.54689  0.97999  0.41693  Biso   1.000  N
  N17      1.0000 0.85976  0.66477  0.27419  Biso   1.000  N
  N18      1.0000 0.61359  0.50991  0.46606  Biso   1.000  N
  C49      1.0000 0.18752  0.69176  0.11155  Biso   1.000  C
  H61      1.0000 0.15950  0.72290  0.06820  Biso   1.000  H
  C50      1.0000 0.29013  0.65948  0.09730  Biso   1.000  C
  H62      1.0000 0.33160  0.66870  0.04520  Biso   1.000  H
  C51      1.0000 0.33287  0.61346  0.15902  Biso   1.000  C
  C52      1.0000 0.26781  0.60128  0.23313  Biso   1.000  C
  H63      1.0000 0.29290  0.56920  0.27630  Biso   1.000  H
  C53      1.0000 0.16585  0.63623  0.24379  Biso   1.000  C
  H64      1.0000 0.12310  0.62800  0.29550  Biso   1.000  H
  C54      1.0000 0.44921  0.58114  0.14761  Biso   1.000  C
  H65      1.0000 0.50960  0.61560  0.15880  Biso   1.000  H
  H66      1.0000 0.45980  0.54460  0.19210  Biso   1.000  H
  C55      1.0000 0.58445  0.54115  0.04162  Biso   1.000  C
  H67      1.0000 0.61710  0.50960  0.08660  Biso   1.000  H
  H68      1.0000 0.62670  0.58460  0.04640  Biso   1.000  H
  C56      1.0000 0.40089  0.48853  0.05008  Biso   1.000  C
  H69      1.0000 0.31830  0.49610  0.06060  Biso   1.000  H
  H70      1.0000 0.43040  0.45610  0.09520  Biso   1.000  H
  C57      1.0000 0.82088  0.85632  0.33245  Biso   1.000  C
  H71      1.0000 0.88430  0.84900  0.37200  Biso   1.000  H
  C58      1.0000 0.73228  0.89686  0.36012  Biso   1.000  C
  H72      1.0000 0.73530  0.91680  0.41740  Biso   1.000  H
  C59      1.0000 0.63849  0.90833  0.30353  Biso   1.000  C
  C60      1.0000 0.63940  0.87773  0.22081  Biso   1.000  C
  H73      1.0000 0.57680  0.88410  0.18020  Biso   1.000  H
  C61      1.0000 0.73147  0.83805  0.19770  Biso   1.000  C
  H74      1.0000 0.73080  0.81780  0.14050  Biso   1.000  H
  C62      1.0000 0.54013  0.95436  0.32666  Biso   1.000  C
  H75      1.0000 0.53860  0.99330  0.28520  Biso   1.000  H
  H76      1.0000 0.46720  0.92920  0.31820  Biso   1.000  H
  C63      1.0000 0.48217  0.04311  0.42607  Biso   1.000  C
  H77      1.0000 0.40000  0.03480  0.41210  Biso   1.000  H
  H78      1.0000 0.51060  0.07720  0.38380  Biso   1.000  H
  C64      1.0000 0.50437  0.93019  0.48027  Biso   1.000  C
  H79      1.0000 0.54780  0.88730  0.47460  Biso   1.000  H
  H80      1.0000 0.42240  0.92060  0.46700  Biso   1.000  H
  C65      1.0000 0.80192  0.61797  0.22678  Biso   1.000  C
  H81      1.0000 0.79820  0.62240  0.16410  Biso   1.000  H
  C66      1.0000 0.74754  0.56359  0.26546  Biso   1.000  C
  H82      1.0000 0.70810  0.53130  0.22930  Biso   1.000  H
  C67      1.0000 0.75032  0.55590  0.35663  Biso   1.000  C
  C68      1.0000 0.80669  0.60597  0.40593  Biso   1.000  C
  H83      1.0000 0.80840  0.60400  0.46880  Biso   1.000  H
  C69      1.0000 0.85989  0.65828  0.36297  Biso   1.000  C
  H84      1.0000 0.89880  0.69160  0.39780  Biso   1.000  H
  C70      1.0000 0.69958  0.49385  0.39953  Biso   1.000  C
  H85      1.0000 0.66350  0.46510  0.35290  Biso   1.000  H
  H86      1.0000 0.76220  0.46730  0.42820  Biso   1.000  H
  C71      1.0000 0.51105  0.53959  0.42262  Biso   1.000  C
  H87      1.0000 0.48080  0.50800  0.37680  Biso   1.000  H
  H88      1.0000 0.53210  0.58250  0.39300  Biso   1.000  H
  C72      1.0000 0.58056  0.44667  0.51034  Biso   1.000  C
  H89      1.0000 0.64870  0.42650  0.54050  Biso   1.000  H
  H90      1.0000 0.55130  0.41380  0.46570  Biso   1.000  H
  Cd4      1.0000 0.03639  0.24798  0.79096  Biso   1.000  Cd
  N19      1.0000 0.87500  0.31888  0.81573  Biso   1.000  N
  N20      1.0000 0.53721  0.44728  0.94120  Biso   1.000  N
  N21      1.0000 0.17804  0.17333  0.74774  Biso   1.000  N
  N22      1.0000 0.45311  0.02001  0.58307  Biso   1.000  N
  N23      1.0000 0.14024  0.33523  0.72581  Biso   1.000  N
  N24      1.0000 0.38641  0.49009  0.53394  Biso   1.000  N
  C73      1.0000 0.81248  0.30824  0.88845  Biso   1.000  C
  H91      1.0000 0.84050  0.27710  0.93180  Biso   1.000  H
  C74      1.0000 0.70987  0.34052  0.90270  Biso   1.000  C
  H92      1.0000 0.66840  0.33130  0.95480  Biso   1.000  H
  C75      1.0000 0.66713  0.38654  0.84098  Biso   1.000  C
  C76      1.0000 0.73219  0.39872  0.76687  Biso   1.000  C
  H93      1.0000 0.70710  0.43080  0.72370  Biso   1.000  H
  C77      1.0000 0.83415  0.36377  0.75621  Biso   1.000  C
  H94      1.0000 0.87690  0.37200  0.70450  Biso   1.000  H
  C78      1.0000 0.55079  0.41886  0.85239  Biso   1.000  C
  H95      1.0000 0.49040  0.38440  0.84120  Biso   1.000  H
  H96      1.0000 0.54020  0.45540  0.80790  Biso   1.000  H
  C79      1.0000 0.41555  0.45885  0.95838  Biso   1.000  C
  H97      1.0000 0.38290  0.49040  0.91340  Biso   1.000  H
  H98      1.0000 0.37330  0.41540  0.95360  Biso   1.000  H
  C80      1.0000 0.59911  0.51147  0.94992  Biso   1.000  C
  H99      1.0000 0.68170  0.50390  0.93940  Biso   1.000  H
  H100     1.0000 0.56960  0.54390  0.90480  Biso   1.000  H
  C81      1.0000 0.17912  0.14368  0.66755  Biso   1.000  C
  H101     1.0000 0.11570  0.15100  0.62800  Biso   1.000  H
  C82      1.0000 0.26772  0.10314  0.63988  Biso   1.000  C
  H102     1.0000 0.26470  0.08320  0.58260  Biso   1.000  H
  C83      1.0000 0.36151  0.09167  0.69647  Biso   1.000  C
  C84      1.0000 0.36060  0.12227  0.77919  Biso   1.000  C
  H103     1.0000 0.42320  0.11590  0.81980  Biso   1.000  H
  C85      1.0000 0.26853  0.16195  0.80230  Biso   1.000  C
  H104     1.0000 0.26920  0.18220  0.85950  Biso   1.000  H
  C86      1.0000 0.45987  0.04564  0.67334  Biso   1.000  C
  H105     1.0000 0.46140  0.00670  0.71480  Biso   1.000  H
  H106     1.0000 0.53280  0.07080  0.68180  Biso   1.000  H
  C87      1.0000 0.51783  0.95689  0.57393  Biso   1.000  C
  H107     1.0000 0.60000  0.96520  0.58790  Biso   1.000  H
  H108     1.0000 0.48940  0.92280  0.61620  Biso   1.000  H
  C88      1.0000 0.49563  0.06981  0.51973  Biso   1.000  C
  H109     1.0000 0.45220  0.11270  0.52540  Biso   1.000  H
  H110     1.0000 0.57760  0.07940  0.53300  Biso   1.000  H
  C89      1.0000 0.19808  0.38203  0.77322  Biso   1.000  C
  H111     1.0000 0.20180  0.37760  0.83590  Biso   1.000  H
  C90      1.0000 0.25246  0.43641  0.73454  Biso   1.000  C
  H112     1.0000 0.29190  0.46870  0.77070  Biso   1.000  H
  C91      1.0000 0.24968  0.44410  0.64337  Biso   1.000  C
  C92      1.0000 0.19331  0.39403  0.59407  Biso   1.000  C
  H113     1.0000 0.19160  0.39600  0.53120  Biso   1.000  H
  C93      1.0000 0.14011  0.34172  0.63703  Biso   1.000  C
  H114     1.0000 0.10120  0.30840  0.60220  Biso   1.000  H
  C94      1.0000 0.30042  0.50615  0.60047  Biso   1.000  C
  H115     1.0000 0.33650  0.53490  0.64710  Biso   1.000  H
  H116     1.0000 0.23780  0.53270  0.57180  Biso   1.000  H
  C95      1.0000 0.48895  0.46041  0.57738  Biso   1.000  C
  H117     1.0000 0.51920  0.49200  0.62320  Biso   1.000  H
  H118     1.0000 0.46790  0.41750  0.60700  Biso   1.000  H
  C96      1.0000 0.41944  0.55333  0.48966  Biso   1.000  C
  H119     1.0000 0.35130  0.57350  0.45950  Biso   1.000  H
  H120     1.0000 0.44870  0.58620  0.53430  Biso   1.000  H
