data_image0
_cell_length_a       11.8995
_cell_length_b       15.531
_cell_length_c       24.692
_cell_angle_alpha    90
_cell_angle_beta     90.171
_cell_angle_gamma    90

_symmetry_space_group_name_H-M    "P 1"
_symmetry_int_tables_number       1

loop_
  _symmetry_equiv_pos_as_xyz
  'x, y, z'

loop_
  _atom_site_label
  _atom_site_occupancy
  _atom_site_fract_x
  _atom_site_fract_y
  _atom_site_fract_z
  _atom_site_thermal_displace_type
  _atom_site_B_iso_or_equiv
  _atom_site_type_symbol
  Ag1      1.0000 0.63925  0.25121  0.85382  Biso   1.000  Ag
  Ag2      1.0000 0.43024  0.34054  0.87497  Biso   1.000  Ag
  Ag3      1.0000 0.62458  0.11062  0.95467  Biso   1.000  Ag
  Ag4      1.0000 0.43982  0.14930  0.86144  Biso   1.000  Ag
  Ag5      1.0000 0.36427  0.25219  0.13776  Biso   1.000  Ag
  Ag6      1.0000 0.56809  0.15658  0.12521  Biso   1.000  Ag
  Ag7      1.0000 0.38712  0.38893  0.04566  Biso   1.000  Ag
  Ag8      1.0000 0.57290  0.34539  0.13453  Biso   1.000  Ag
  C1       1.0000 0.52930  0.23370  0.92050  Biso   1.000  C
  C2       1.0000 0.51810  0.24250  0.97000  Biso   1.000  C
  C3       1.0000 0.49730  0.25610  0.02400  Biso   1.000  C
  C4       1.0000 0.48470  0.26330  0.07360  Biso   1.000  C
  N1       1.0000 0.51610  0.10210  0.74840  Biso   1.000  N
  O1       1.0000 0.54640  0.06320  0.70590  Biso   1.000  O
  O2       1.0000 0.48450  0.05890  0.78820  Biso   1.000  O
  O3       1.0000 0.51960  0.18070  0.74980  Biso   1.000  O
  Ag9      1.0000 0.63925  0.24879  0.35382  Biso   1.000  Ag
  Ag10     1.0000 0.43024  0.15946  0.37497  Biso   1.000  Ag
  Ag11     1.0000 0.62458  0.38938  0.45467  Biso   1.000  Ag
  Ag12     1.0000 0.43982  0.35070  0.36144  Biso   1.000  Ag
  Ag13     1.0000 0.36427  0.24781  0.63776  Biso   1.000  Ag
  Ag14     1.0000 0.56809  0.34342  0.62521  Biso   1.000  Ag
  Ag15     1.0000 0.38712  0.11107  0.54566  Biso   1.000  Ag
  Ag16     1.0000 0.57290  0.15461  0.63453  Biso   1.000  Ag
  C5       1.0000 0.52930  0.26630  0.42050  Biso   1.000  C
  C6       1.0000 0.51810  0.25750  0.47000  Biso   1.000  C
  C7       1.0000 0.49730  0.24390  0.52400  Biso   1.000  C
  C8       1.0000 0.48470  0.23670  0.57360  Biso   1.000  C
  N2       1.0000 0.51610  0.39790  0.24840  Biso   1.000  N
  O4       1.0000 0.54640  0.43680  0.20590  Biso   1.000  O
  O5       1.0000 0.48450  0.44110  0.28820  Biso   1.000  O
  O6       1.0000 0.51960  0.31930  0.24980  Biso   1.000  O
  Ag17     1.0000 0.13764  0.99791  0.85769  Biso   1.000  Ag
  Ag18     1.0000 0.92622  0.91106  0.87719  Biso   1.000  Ag
  Ag19     1.0000 0.12259  0.13975  0.95274  Biso   1.000  Ag
  Ag20     1.0000 0.94041  0.10210  0.86296  Biso   1.000  Ag
  C9       1.0000 0.02310  0.01680  0.92330  Biso   1.000  C
  C10      1.0000 0.01110  0.01000  0.97280  Biso   1.000  C
  Ag21     1.0000 0.86360  0.00303  0.64153  Biso   1.000  Ag
  Ag22     1.0000 0.06534  0.90508  0.62711  Biso   1.000  Ag
  Ag23     1.0000 0.88356  0.13841  0.54484  Biso   1.000  Ag
  Ag24     1.0000 0.07443  0.09393  0.63573  Biso   1.000  Ag
  C11      1.0000 0.98270  0.01240  0.57710  Biso   1.000  C
  C12      1.0000 0.99100  0.00880  0.52720  Biso   1.000  C
  N3       1.0000 0.01560  0.14800  0.74970  Biso   1.000  N
  O7       1.0000 0.98330  0.19240  0.78940  Biso   1.000  O
  O8       1.0000 0.04570  0.18740  0.70700  Biso   1.000  O
  O9       1.0000 0.01820  0.06840  0.75170  Biso   1.000  O
  Ag25     1.0000 0.86236  0.00209  0.14231  Biso   1.000  Ag
  Ag26     1.0000 0.07378  0.08894  0.12281  Biso   1.000  Ag
  Ag27     1.0000 0.87741  0.86025  0.04726  Biso   1.000  Ag
  Ag28     1.0000 0.05959  0.89790  0.13704  Biso   1.000  Ag
  C13      1.0000 0.97690  0.98320  0.07670  Biso   1.000  C
  C14      1.0000 0.98890  0.99000  0.02720  Biso   1.000  C
  Ag29     1.0000 0.13640  0.99697  0.35847  Biso   1.000  Ag
  Ag30     1.0000 0.93466  0.09492  0.37289  Biso   1.000  Ag
  Ag31     1.0000 0.11644  0.86159  0.45516  Biso   1.000  Ag
  Ag32     1.0000 0.92557  0.90607  0.36427  Biso   1.000  Ag
  C15      1.0000 0.01730  0.98760  0.42290  Biso   1.000  C
  C16      1.0000 0.00900  0.99120  0.47280  Biso   1.000  C
  N4       1.0000 0.98440  0.85200  0.25030  Biso   1.000  N
  O10      1.0000 0.01670  0.80760  0.21060  Biso   1.000  O
  O11      1.0000 0.95430  0.81260  0.29300  Biso   1.000  O
  O12      1.0000 0.98180  0.93160  0.24830  Biso   1.000  O
  Ag33     1.0000 0.13640  0.50303  0.85847  Biso   1.000  Ag
  Ag34     1.0000 0.93466  0.40508  0.87289  Biso   1.000  Ag
  Ag35     1.0000 0.11644  0.63841  0.95516  Biso   1.000  Ag
  Ag36     1.0000 0.92557  0.59393  0.86427  Biso   1.000  Ag
  C17      1.0000 0.01730  0.51240  0.92290  Biso   1.000  C
  C18      1.0000 0.00900  0.50880  0.97280  Biso   1.000  C
  N5       1.0000 0.98440  0.64800  0.75030  Biso   1.000  N
  O13      1.0000 0.01670  0.69240  0.71060  Biso   1.000  O
  O14      1.0000 0.95430  0.68740  0.79300  Biso   1.000  O
  O15      1.0000 0.98180  0.56840  0.74830  Biso   1.000  O
  Ag37     1.0000 0.86236  0.49791  0.64231  Biso   1.000  Ag
  Ag38     1.0000 0.07378  0.41106  0.62281  Biso   1.000  Ag
  Ag39     1.0000 0.87741  0.63975  0.54726  Biso   1.000  Ag
  Ag40     1.0000 0.05959  0.60210  0.63704  Biso   1.000  Ag
  C19      1.0000 0.97690  0.51680  0.57670  Biso   1.000  C
  C20      1.0000 0.98890  0.51000  0.52720  Biso   1.000  C
  Ag41     1.0000 0.86360  0.49697  0.14153  Biso   1.000  Ag
  Ag42     1.0000 0.06534  0.59492  0.12711  Biso   1.000  Ag
  Ag43     1.0000 0.88356  0.36159  0.04484  Biso   1.000  Ag
  Ag44     1.0000 0.07443  0.40607  0.13573  Biso   1.000  Ag
  C21      1.0000 0.98270  0.48760  0.07710  Biso   1.000  C
  C22      1.0000 0.99100  0.49120  0.02720  Biso   1.000  C
  N6       1.0000 0.01560  0.35200  0.24970  Biso   1.000  N
  O16      1.0000 0.98330  0.30760  0.28940  Biso   1.000  O
  O17      1.0000 0.04570  0.31260  0.20700  Biso   1.000  O
  O18      1.0000 0.01820  0.43160  0.25170  Biso   1.000  O
  Ag45     1.0000 0.13764  0.50209  0.35769  Biso   1.000  Ag
  Ag46     1.0000 0.92622  0.58894  0.37719  Biso   1.000  Ag
  Ag47     1.0000 0.12259  0.36025  0.45274  Biso   1.000  Ag
  Ag48     1.0000 0.94041  0.39790  0.36296  Biso   1.000  Ag
  C23      1.0000 0.02310  0.48320  0.42330  Biso   1.000  C
  C24      1.0000 0.01110  0.49000  0.47280  Biso   1.000  C
  Ag49     1.0000 0.36075  0.75121  0.64618  Biso   1.000  Ag
  Ag50     1.0000 0.56976  0.84054  0.62503  Biso   1.000  Ag
  Ag51     1.0000 0.37542  0.61062  0.54533  Biso   1.000  Ag
  Ag52     1.0000 0.56018  0.64930  0.63856  Biso   1.000  Ag
  Ag53     1.0000 0.63573  0.75219  0.36224  Biso   1.000  Ag
  Ag54     1.0000 0.43191  0.65658  0.37479  Biso   1.000  Ag
  Ag55     1.0000 0.61288  0.88893  0.45434  Biso   1.000  Ag
  Ag56     1.0000 0.42710  0.84539  0.36547  Biso   1.000  Ag
  C25      1.0000 0.47070  0.73370  0.57950  Biso   1.000  C
  C26      1.0000 0.48190  0.74250  0.53000  Biso   1.000  C
  C27      1.0000 0.50270  0.75610  0.47600  Biso   1.000  C
  C28      1.0000 0.51530  0.76330  0.42640  Biso   1.000  C
  N7       1.0000 0.48390  0.60210  0.75160  Biso   1.000  N
  O19      1.0000 0.45360  0.56320  0.79410  Biso   1.000  O
  O20      1.0000 0.51550  0.55890  0.71180  Biso   1.000  O
  O21      1.0000 0.48040  0.68070  0.75020  Biso   1.000  O
  Ag57     1.0000 0.36075  0.74879  0.14618  Biso   1.000  Ag
  Ag58     1.0000 0.56976  0.65946  0.12503  Biso   1.000  Ag
  Ag59     1.0000 0.37542  0.88938  0.04533  Biso   1.000  Ag
  Ag60     1.0000 0.56018  0.85070  0.13856  Biso   1.000  Ag
  Ag61     1.0000 0.63573  0.74781  0.86224  Biso   1.000  Ag
  Ag62     1.0000 0.43191  0.84342  0.87479  Biso   1.000  Ag
  Ag63     1.0000 0.61288  0.61107  0.95434  Biso   1.000  Ag
  Ag64     1.0000 0.42710  0.65461  0.86547  Biso   1.000  Ag
  C29      1.0000 0.47070  0.76630  0.07950  Biso   1.000  C
  C30      1.0000 0.48190  0.75750  0.03000  Biso   1.000  C
  C31      1.0000 0.50270  0.74390  0.97600  Biso   1.000  C
  C32      1.0000 0.51530  0.73670  0.92640  Biso   1.000  C
  N8       1.0000 0.48390  0.89790  0.25160  Biso   1.000  N
  O22      1.0000 0.45360  0.93680  0.29410  Biso   1.000  O
  O23      1.0000 0.51550  0.94110  0.21180  Biso   1.000  O
  O24      1.0000 0.48040  0.81930  0.25020  Biso   1.000  O
