data_image0
_cell_length_a       19.414
_cell_length_b       22.268
_cell_length_c       20.521
_cell_angle_alpha    90
_cell_angle_beta     94.887
_cell_angle_gamma    90

_symmetry_space_group_name_H-M    "P 1"
_symmetry_int_tables_number       1

loop_
  _symmetry_equiv_pos_as_xyz
  'x, y, z'

loop_
  _atom_site_label
  _atom_site_occupancy
  _atom_site_fract_x
  _atom_site_fract_y
  _atom_site_fract_z
  _atom_site_thermal_displace_type
  _atom_site_B_iso_or_equiv
  _atom_site_type_symbol
  Ni1      1.0000 0.64816  0.69670  0.64370  Biso   1.000  Ni
  Ni2      1.0000 0.63486  0.89678  0.58747  Biso   1.000  Ni
  Ni3      1.0000 0.73729  0.06927  0.57415  Biso   1.000  Ni
  Ni4      1.0000 0.83052  0.99073  0.79451  Biso   1.000  Ni
  Ni5      1.0000 0.75339  0.95635  0.94715  Biso   1.000  Ni
  Ni6      1.0000 0.74434  0.80129  0.82058  Biso   1.000  Ni
  Ni7      1.0000 0.66986  0.04852  0.73576  Biso   1.000  Ni
  Ni8      1.0000 0.51969  0.06445  0.97327  Biso   1.000  Ni
  S1       1.0000 0.60306  0.79376  0.61716  Biso   1.000  S
  S2       1.0000 0.64064  0.95088  0.69713  Biso   1.000  S
  S3       1.0000 0.69150  0.97863  0.53179  Biso   1.000  S
  S4       1.0000 0.63106  0.08993  0.62409  Biso   1.000  S
  S5       1.0000 0.78577  0.03620  0.69176  Biso   1.000  S
  S6       1.0000 0.86722  0.95030  0.90762  Biso   1.000  S
  S7       1.0000 0.72007  0.01141  0.83969  Biso   1.000  S
  S8       1.0000 0.79196  0.89204  0.76515  Biso   1.000  S
  S9       1.0000 0.72654  0.85502  0.92280  Biso   1.000  S
  S10      1.0000 0.72688  0.73633  0.72466  Biso   1.000  S
  N1       1.0000 0.59430  0.84690  0.50590  Biso   1.000  N
  N2       1.0000 0.54270  0.93510  0.60630  Biso   1.000  N
  N3       1.0000 0.73920  0.87990  0.58370  Biso   1.000  N
  N4       1.0000 0.63790  0.20260  0.66930  Biso   1.000  N
  N5       1.0000 0.79330  0.13370  0.62690  Biso   1.000  N
  N6       1.0000 0.92540  0.05590  0.94280  Biso   1.000  N
  N7       1.0000 0.75560  0.04950  0.95560  Biso   1.000  N
  N8       1.0000 0.84930  0.79890  0.82030  Biso   1.000  N
  N9       1.0000 0.64330  0.82790  0.82400  Biso   1.000  N
  N10      1.0000 0.73560  0.71200  0.84640  Biso   1.000  N
  O1       1.0000 0.58630  0.66390  0.56850  Biso   1.000  O
  O2       1.0000 0.50080  0.14913  0.00520  Biso   1.000  O
  O3       1.0000 0.46180  0.05620  0.77590  Biso   1.000  O
  O4       1.0000 0.57590  0.05360  0.77390  Biso   1.000  O
  O5       1.0000 0.91120  0.99560  0.49390  Biso   1.000  O
  O6       1.0000 0.82460  0.04970  0.52840  Biso   1.000  O
  O7       1.0000 0.62290  0.18000  0.43990  Biso   1.000  O
  O8       1.0000 0.69920  0.12020  0.49490  Biso   1.000  O
  O9       1.0000 0.90340  0.16390  0.84170  Biso   1.000  O
  O10      1.0000 0.87840  0.07030  0.81700  Biso   1.000  O
  O11      1.0000 0.79820  0.93300  0.03860  Biso   1.000  O
  O12      1.0000 0.89050  0.91700  0.10880  Biso   1.000  O
  O13      1.0000 0.70340  0.21960  0.81860  Biso   1.000  O
  O14      1.0000 0.68810  0.13200  0.77100  Biso   1.000  O
  O15      1.0000 0.01930  0.92500  0.73580  Biso   1.000  O
  O16      1.0000 0.91980  0.96820  0.75370  Biso   1.000  O
  O17      1.0000 0.65290  0.96330  0.97310  Biso   1.000  O
  O18      1.0000 0.53820  0.97343  0.95380  Biso   1.000  O
  O19      1.0000 0.72120  0.53210  0.72010  Biso   1.000  O
  O20      1.0000 0.67930  0.61240  0.66730  Biso   1.000  O
  C1       1.0000 0.54620  0.68140  0.52190  Biso   1.000  C
  C2       1.0000 0.55670  0.74340  0.49400  Biso   1.000  C
  C3       1.0000 0.54030  0.75470  0.42750  Biso   1.000  C
  H1       1.0000 0.52170  0.72410  0.40060  Biso   1.000  H
  C4       1.0000 0.55120  0.81040  0.40110  Biso   1.000  C
  H2       1.0000 0.54040  0.81740  0.35670  Biso   1.000  H
  C5       1.0000 0.57780  0.85500  0.44080  Biso   1.000  C
  H3       1.0000 0.58500  0.89250  0.42270  Biso   1.000  H
  C6       1.0000 0.58330  0.79200  0.53280  Biso   1.000  C
  C7       1.0000 0.51470  0.03870  0.75010  Biso   1.000  C
  C8       1.0000 0.50460  0.00030  0.68940  Biso   1.000  C
  C9       1.0000 0.43830  0.99950  0.65670  Biso   1.000  C
  H4       1.0000 0.40260  0.02060  0.67350  Biso   1.000  H
  C10      1.0000 0.42550  0.96630  0.59760  Biso   1.000  C
  H5       1.0000 0.38180  0.96500  0.57540  Biso   1.000  H
  C11      1.0000 0.47930  0.93680  0.57520  Biso   1.000  C
  H6       1.0000 0.47190  0.91640  0.53570  Biso   1.000  H
  C12      1.0000 0.55620  0.96530  0.66430  Biso   1.000  C
  C13      1.0000 0.85710  0.00100  0.52350  Biso   1.000  C
  C14      1.0000 0.83220  0.94410  0.55550  Biso   1.000  C
  C15      1.0000 0.87890  0.89980  0.57770  Biso   1.000  C
  H7       1.0000 0.92610  0.90620  0.57620  Biso   1.000  H
  C16      1.0000 0.85470  0.84530  0.60230  Biso   1.000  C
  H8       1.0000 0.88550  0.81540  0.61760  Biso   1.000  H
  C17      1.0000 0.78470  0.83750  0.60310  Biso   1.000  C
  H9       1.0000 0.76840  0.80110  0.61790  Biso   1.000  H
  C18      1.0000 0.76180  0.93270  0.55900  Biso   1.000  C
  C19      1.0000 0.65490  0.16240  0.49100  Biso   1.000  C
  C20      1.0000 0.64090  0.19690  0.55450  Biso   1.000  C
  C21      1.0000 0.63630  0.25850  0.55200  Biso   1.000  C
  H10      1.0000 0.63430  0.27750  0.51160  Biso   1.000  H
  C22      1.0000 0.63460  0.29290  0.60780  Biso   1.000  C
  H11      1.0000 0.63170  0.33460  0.60570  Biso   1.000  H
  C23      1.0000 0.63750  0.26270  0.66720  Biso   1.000  C
  H12      1.0000 0.63900  0.28450  0.70600  Biso   1.000  H
  C24      1.0000 0.63740  0.16750  0.61490  Biso   1.000  C
  C25      1.0000 0.87920  0.12620  0.80250  Biso   1.000  C
  C26      1.0000 0.85260  0.14690  0.73350  Biso   1.000  C
  C27      1.0000 0.86660  0.20570  0.71620  Biso   1.000  C
  H13      1.0000 0.89130  0.23040  0.74640  Biso   1.000  H
  C28      1.0000 0.84490  0.22810  0.65580  Biso   1.000  C
  H14      1.0000 0.85400  0.26780  0.64510  Biso   1.000  H
  C29      1.0000 0.80900  0.19050  0.61070  Biso   1.000  C
  H15      1.0000 0.79570  0.20470  0.56880  Biso   1.000  H
  C30      1.0000 0.81400  0.11150  0.68690  Biso   1.000  C
  C31      1.0000 0.85980  0.94440  0.06090  Biso   1.000  C
  C32      1.0000 0.89720  0.99610  0.03220  Biso   1.000  C
  C33      1.0000 0.92950  0.04020  0.07450  Biso   1.000  C
  H16      1.0000 0.93160  0.03460  0.11950  Biso   1.000  H
  C34      1.0000 0.95750  0.09080  0.04990  Biso   1.000  C
  H17      1.0000 0.97880  0.11920  0.07800  Biso   1.000  H
  C35      1.0000 0.95400  0.09960  0.98270  Biso   1.000  C
  H18      1.0000 0.97080  0.13480  0.96530  Biso   1.000  H
  C36      1.0000 0.89950  0.00420  0.96550  Biso   1.000  C
  C37      1.0000 0.70740  0.16260  0.82070  Biso   1.000  C
  C38      1.0000 0.73450  0.13370  0.88410  Biso   1.000  C
  C39      1.0000 0.75320  0.17140  0.93700  Biso   1.000  C
  H19      1.0000 0.75360  0.21280  0.93090  Biso   1.000  H
  C40      1.0000 0.77090  0.14810  0.99770  Biso   1.000  C
  H20      1.0000 0.78330  0.17340  0.03290  Biso   1.000  H
  C41      1.0000 0.77010  0.08580  0.00650  Biso   1.000  C
  H21      1.0000 0.77970  0.06970  0.04810  Biso   1.000  H
  C42      1.0000 0.73760  0.07120  0.89460  Biso   1.000  C
  C43      1.0000 0.95890  0.92340  0.75520  Biso   1.000  C
  C44      1.0000 0.93660  0.86490  0.78180  Biso   1.000  C
  C45      1.0000 0.98640  0.82120  0.80430  Biso   1.000  C
  H22      1.0000 0.03290  0.82850  0.79940  Biso   1.000  H
  C46      1.0000 0.96810  0.76900  0.83300  Biso   1.000  C
  H23      1.0000 0.00130  0.74060  0.84690  Biso   1.000  H
  C47      1.0000 0.89850  0.75920  0.84090  Biso   1.000  C
  H24      1.0000 0.88570  0.72410  0.86110  Biso   1.000  H
  C48      1.0000 0.86670  0.85120  0.79090  Biso   1.000  C
  C49      1.0000 0.59690  0.94960  0.94200  Biso   1.000  C
  C50      1.0000 0.59260  0.90400  0.88740  Biso   1.000  C
  C51      1.0000 0.53220  0.90060  0.84440  Biso   1.000  C
  H25      1.0000 0.49480  0.92540  0.85070  Biso   1.000  H
  C52      1.0000 0.52850  0.86040  0.79280  Biso   1.000  C
  H26      1.0000 0.48850  0.85730  0.76460  Biso   1.000  H
  C53      1.0000 0.58480  0.82530  0.78420  Biso   1.000  C
  H27      1.0000 0.58250  0.79850  0.74930  Biso   1.000  H
  C54      1.0000 0.64740  0.86470  0.87570  Biso   1.000  C
  C55      1.0000 0.70650  0.58750  0.71880  Biso   1.000  C
  C56      1.0000 0.71820  0.62090  0.78330  Biso   1.000  C
  C57      1.0000 0.72750  0.58870  0.84210  Biso   1.000  C
  H28      1.0000 0.72430  0.54710  0.84120  Biso   1.000  H
  C58      1.0000 0.74100  0.61690  0.89990  Biso   1.000  C
  H29      1.0000 0.74890  0.59480  0.93820  Biso   1.000  H
  C59      1.0000 0.74290  0.68000  0.90160  Biso   1.000  C
  H30      1.0000 0.74940  0.69960  0.94160  Biso   1.000  H
  C60      1.0000 0.72450  0.68400  0.78820  Biso   1.000  C
  Ni9      1.0000 0.35184  0.19670  0.85630  Biso   1.000  Ni
  Ni10     1.0000 0.36514  0.39678  0.91253  Biso   1.000  Ni
  Ni11     1.0000 0.26271  0.56927  0.92585  Biso   1.000  Ni
  Ni12     1.0000 0.16948  0.49073  0.70549  Biso   1.000  Ni
  Ni13     1.0000 0.24661  0.45635  0.55285  Biso   1.000  Ni
  Ni14     1.0000 0.25566  0.30129  0.67942  Biso   1.000  Ni
  Ni15     1.0000 0.33014  0.54852  0.76424  Biso   1.000  Ni
  Ni16     1.0000 0.48031  0.56445  0.52673  Biso   1.000  Ni
  S11      1.0000 0.39694  0.29376  0.88284  Biso   1.000  S
  S12      1.0000 0.35936  0.45088  0.80287  Biso   1.000  S
  S13      1.0000 0.30850  0.47863  0.96821  Biso   1.000  S
  S14      1.0000 0.36894  0.58993  0.87591  Biso   1.000  S
  S15      1.0000 0.21423  0.53620  0.80824  Biso   1.000  S
  S16      1.0000 0.13278  0.45030  0.59238  Biso   1.000  S
  S17      1.0000 0.27993  0.51141  0.66031  Biso   1.000  S
  S18      1.0000 0.20804  0.39204  0.73485  Biso   1.000  S
  S19      1.0000 0.27346  0.35502  0.57720  Biso   1.000  S
  S20      1.0000 0.27312  0.23633  0.77534  Biso   1.000  S
  N11      1.0000 0.40570  0.34690  0.99410  Biso   1.000  N
  N12      1.0000 0.45730  0.43510  0.89370  Biso   1.000  N
  N13      1.0000 0.26080  0.37990  0.91630  Biso   1.000  N
  N14      1.0000 0.36210  0.70260  0.83070  Biso   1.000  N
  N15      1.0000 0.20670  0.63370  0.87310  Biso   1.000  N
  N16      1.0000 0.07460  0.55590  0.55720  Biso   1.000  N
  N17      1.0000 0.24440  0.54950  0.54440  Biso   1.000  N
  N18      1.0000 0.15070  0.29890  0.67970  Biso   1.000  N
  N19      1.0000 0.35670  0.32790  0.67600  Biso   1.000  N
  N20      1.0000 0.26440  0.21200  0.65360  Biso   1.000  N
  O21      1.0000 0.41370  0.16390  0.93150  Biso   1.000  O
  O22      1.0000 0.49920  0.64913  0.49480  Biso   1.000  O
  O23      1.0000 0.53820  0.55620  0.72410  Biso   1.000  O
  O24      1.0000 0.42410  0.55360  0.72610  Biso   1.000  O
  O25      1.0000 0.08880  0.49560  0.00610  Biso   1.000  O
  O26      1.0000 0.17540  0.54970  0.97160  Biso   1.000  O
  O27      1.0000 0.37710  0.68000  0.06010  Biso   1.000  O
  O28      1.0000 0.30080  0.62020  0.00510  Biso   1.000  O
  O29      1.0000 0.09660  0.66390  0.65830  Biso   1.000  O
  O30      1.0000 0.12160  0.57030  0.68300  Biso   1.000  O
  O31      1.0000 0.20180  0.43300  0.46140  Biso   1.000  O
  O32      1.0000 0.10950  0.41700  0.39120  Biso   1.000  O
  O33      1.0000 0.29660  0.71960  0.68140  Biso   1.000  O
  O34      1.0000 0.31190  0.63200  0.72900  Biso   1.000  O
  O35      1.0000 0.98070  0.42500  0.76420  Biso   1.000  O
  O36      1.0000 0.08020  0.46820  0.74630  Biso   1.000  O
  O37      1.0000 0.34710  0.46330  0.52690  Biso   1.000  O
  O38      1.0000 0.46180  0.47343  0.54620  Biso   1.000  O
  O39      1.0000 0.27880  0.03210  0.77990  Biso   1.000  O
  O40      1.0000 0.32070  0.11240  0.83270  Biso   1.000  O
  C61      1.0000 0.45380  0.18140  0.97810  Biso   1.000  C
  C62      1.0000 0.44330  0.24340  0.00600  Biso   1.000  C
  C63      1.0000 0.45970  0.25470  0.07250  Biso   1.000  C
  H31      1.0000 0.47830  0.22410  0.09940  Biso   1.000  H
  C64      1.0000 0.44880  0.31040  0.09890  Biso   1.000  C
  H32      1.0000 0.45960  0.31740  0.14330  Biso   1.000  H
  C65      1.0000 0.42220  0.35500  0.05920  Biso   1.000  C
  H33      1.0000 0.41500  0.39250  0.07730  Biso   1.000  H
  C66      1.0000 0.41670  0.29200  0.96720  Biso   1.000  C
  C67      1.0000 0.48530  0.53870  0.74990  Biso   1.000  C
  C68      1.0000 0.49540  0.50030  0.81060  Biso   1.000  C
  C69      1.0000 0.56170  0.49950  0.84330  Biso   1.000  C
  H34      1.0000 0.59740  0.52060  0.82650  Biso   1.000  H
  C70      1.0000 0.57450  0.46630  0.90240  Biso   1.000  C
  H35      1.0000 0.61820  0.46500  0.92460  Biso   1.000  H
  C71      1.0000 0.52070  0.43680  0.92480  Biso   1.000  C
  H36      1.0000 0.52810  0.41640  0.96430  Biso   1.000  H
  C72      1.0000 0.44380  0.46530  0.83570  Biso   1.000  C
  C73      1.0000 0.14290  0.50100  0.97650  Biso   1.000  C
  C74      1.0000 0.16780  0.44410  0.94450  Biso   1.000  C
  C75      1.0000 0.12110  0.39980  0.92230  Biso   1.000  C
  H37      1.0000 0.07390  0.40620  0.92380  Biso   1.000  H
  C76      1.0000 0.14530  0.34530  0.89770  Biso   1.000  C
  H38      1.0000 0.11450  0.31540  0.88240  Biso   1.000  H
  C77      1.0000 0.21530  0.33750  0.89690  Biso   1.000  C
  H39      1.0000 0.23160  0.30110  0.88210  Biso   1.000  H
  C78      1.0000 0.23820  0.43270  0.94100  Biso   1.000  C
  C79      1.0000 0.34510  0.66240  0.00900  Biso   1.000  C
  C80      1.0000 0.35910  0.69690  0.94550  Biso   1.000  C
  C81      1.0000 0.36370  0.75850  0.94800  Biso   1.000  C
  H40      1.0000 0.36570  0.77750  0.98840  Biso   1.000  H
  C82      1.0000 0.36540  0.79290  0.89220  Biso   1.000  C
  H41      1.0000 0.36830  0.83460  0.89430  Biso   1.000  H
  C83      1.0000 0.36250  0.76270  0.83280  Biso   1.000  C
  H42      1.0000 0.36100  0.78450  0.79400  Biso   1.000  H
  C84      1.0000 0.36260  0.66750  0.88510  Biso   1.000  C
  C85      1.0000 0.12080  0.62620  0.69750  Biso   1.000  C
  C86      1.0000 0.14740  0.64690  0.76650  Biso   1.000  C
  C87      1.0000 0.13340  0.70570  0.78380  Biso   1.000  C
  H43      1.0000 0.10870  0.73040  0.75360  Biso   1.000  H
  C88      1.0000 0.15510  0.72810  0.84420  Biso   1.000  C
  H44      1.0000 0.14600  0.76780  0.85490  Biso   1.000  H
  C89      1.0000 0.19100  0.69050  0.88930  Biso   1.000  C
  H45      1.0000 0.20430  0.70470  0.93120  Biso   1.000  H
  C90      1.0000 0.18600  0.61150  0.81310  Biso   1.000  C
  C91      1.0000 0.14020  0.44440  0.43910  Biso   1.000  C
  C92      1.0000 0.10280  0.49610  0.46780  Biso   1.000  C
  C93      1.0000 0.07050  0.54020  0.42550  Biso   1.000  C
  H46      1.0000 0.06840  0.53460  0.38050  Biso   1.000  H
  C94      1.0000 0.04250  0.59080  0.45010  Biso   1.000  C
  H47      1.0000 0.02120  0.61920  0.42200  Biso   1.000  H
  C95      1.0000 0.04600  0.59960  0.51730  Biso   1.000  C
  H48      1.0000 0.02920  0.63480  0.53470  Biso   1.000  H
  C96      1.0000 0.10050  0.50420  0.53450  Biso   1.000  C
  C97      1.0000 0.29260  0.66260  0.67930  Biso   1.000  C
  C98      1.0000 0.26550  0.63370  0.61590  Biso   1.000  C
  C99      1.0000 0.24680  0.67140  0.56300  Biso   1.000  C
  H49      1.0000 0.24640  0.71280  0.56910  Biso   1.000  H
  C100     1.0000 0.22910  0.64810  0.50230  Biso   1.000  C
  H50      1.0000 0.21670  0.67340  0.46710  Biso   1.000  H
  C101     1.0000 0.22990  0.58580  0.49350  Biso   1.000  C
  H51      1.0000 0.22030  0.56970  0.45190  Biso   1.000  H
  C102     1.0000 0.26240  0.57120  0.60540  Biso   1.000  C
  C103     1.0000 0.04110  0.42340  0.74480  Biso   1.000  C
  C104     1.0000 0.06340  0.36490  0.71820  Biso   1.000  C
  C105     1.0000 0.01360  0.32120  0.69570  Biso   1.000  C
  H52      1.0000 0.96710  0.32850  0.70060  Biso   1.000  H
  C106     1.0000 0.03190  0.26900  0.66700  Biso   1.000  C
  H53      1.0000 0.99870  0.24060  0.65310  Biso   1.000  H
  C107     1.0000 0.10150  0.25920  0.65910  Biso   1.000  C
  H54      1.0000 0.11430  0.22410  0.63890  Biso   1.000  H
  C108     1.0000 0.13330  0.35120  0.70910  Biso   1.000  C
  C109     1.0000 0.40310  0.44960  0.55800  Biso   1.000  C
  C110     1.0000 0.40740  0.40400  0.61260  Biso   1.000  C
  C111     1.0000 0.46780  0.40060  0.65560  Biso   1.000  C
  H55      1.0000 0.50520  0.42540  0.64930  Biso   1.000  H
  C112     1.0000 0.47150  0.36040  0.70720  Biso   1.000  C
  H56      1.0000 0.51150  0.35730  0.73540  Biso   1.000  H
  C113     1.0000 0.41520  0.32530  0.71580  Biso   1.000  C
  H57      1.0000 0.41750  0.29850  0.75070  Biso   1.000  H
  C114     1.0000 0.35260  0.36470  0.62430  Biso   1.000  C
  C115     1.0000 0.29350  0.08750  0.78120  Biso   1.000  C
  C116     1.0000 0.28180  0.12090  0.71670  Biso   1.000  C
  C117     1.0000 0.27250  0.08870  0.65790  Biso   1.000  C
  H58      1.0000 0.27570  0.04710  0.65880  Biso   1.000  H
  C118     1.0000 0.25900  0.11690  0.60010  Biso   1.000  C
  H59      1.0000 0.25110  0.09480  0.56180  Biso   1.000  H
  C119     1.0000 0.25710  0.18000  0.59840  Biso   1.000  C
  H60      1.0000 0.25060  0.19960  0.55840  Biso   1.000  H
  C120     1.0000 0.27550  0.18400  0.71180  Biso   1.000  C
  Ni17     1.0000 0.35184  0.30330  0.35630  Biso   1.000  Ni
  Ni18     1.0000 0.36514  0.10322  0.41253  Biso   1.000  Ni
  Ni19     1.0000 0.26271  0.93073  0.42585  Biso   1.000  Ni
  Ni20     1.0000 0.16948  0.00927  0.20549  Biso   1.000  Ni
  Ni21     1.0000 0.24661  0.04365  0.05285  Biso   1.000  Ni
  Ni22     1.0000 0.25566  0.19871  0.17942  Biso   1.000  Ni
  Ni23     1.0000 0.33014  0.95148  0.26424  Biso   1.000  Ni
  Ni24     1.0000 0.48031  0.93555  0.02673  Biso   1.000  Ni
  S21      1.0000 0.39694  0.20624  0.38284  Biso   1.000  S
  S22      1.0000 0.35936  0.04912  0.30287  Biso   1.000  S
  S23      1.0000 0.30850  0.02137  0.46821  Biso   1.000  S
  S24      1.0000 0.36894  0.91007  0.37591  Biso   1.000  S
  S25      1.0000 0.21423  0.96380  0.30824  Biso   1.000  S
  S26      1.0000 0.13278  0.04970  0.09238  Biso   1.000  S
  S27      1.0000 0.27993  0.98859  0.16031  Biso   1.000  S
  S28      1.0000 0.20804  0.10796  0.23485  Biso   1.000  S
  S29      1.0000 0.27346  0.14498  0.07720  Biso   1.000  S
  S30      1.0000 0.27312  0.26367  0.27534  Biso   1.000  S
  N21      1.0000 0.40570  0.15310  0.49410  Biso   1.000  N
  N22      1.0000 0.45730  0.06490  0.39370  Biso   1.000  N
  N23      1.0000 0.26080  0.12010  0.41630  Biso   1.000  N
  N24      1.0000 0.36210  0.79740  0.33070  Biso   1.000  N
  N25      1.0000 0.20670  0.86630  0.37310  Biso   1.000  N
  N26      1.0000 0.07460  0.94410  0.05720  Biso   1.000  N
  N27      1.0000 0.24440  0.95050  0.04440  Biso   1.000  N
  N28      1.0000 0.15070  0.20110  0.17970  Biso   1.000  N
  N29      1.0000 0.35670  0.17210  0.17600  Biso   1.000  N
  N30      1.0000 0.26440  0.28800  0.15360  Biso   1.000  N
  O41      1.0000 0.41370  0.33610  0.43150  Biso   1.000  O
  O42      1.0000 0.49920  0.85087  0.99480  Biso   1.000  O
  O43      1.0000 0.53820  0.94380  0.22410  Biso   1.000  O
  O44      1.0000 0.42410  0.94640  0.22610  Biso   1.000  O
  O45      1.0000 0.08880  0.00440  0.50610  Biso   1.000  O
  O46      1.0000 0.17540  0.95030  0.47160  Biso   1.000  O
  O47      1.0000 0.37710  0.82000  0.56010  Biso   1.000  O
  O48      1.0000 0.30080  0.87980  0.50510  Biso   1.000  O
  O49      1.0000 0.09660  0.83610  0.15830  Biso   1.000  O
  O50      1.0000 0.12160  0.92970  0.18300  Biso   1.000  O
  O51      1.0000 0.20180  0.06700  0.96140  Biso   1.000  O
  O52      1.0000 0.10950  0.08300  0.89120  Biso   1.000  O
  O53      1.0000 0.29660  0.78040  0.18140  Biso   1.000  O
  O54      1.0000 0.31190  0.86800  0.22900  Biso   1.000  O
  O55      1.0000 0.98070  0.07500  0.26420  Biso   1.000  O
  O56      1.0000 0.08020  0.03180  0.24630  Biso   1.000  O
  O57      1.0000 0.34710  0.03670  0.02690  Biso   1.000  O
  O58      1.0000 0.46180  0.02657  0.04620  Biso   1.000  O
  O59      1.0000 0.27880  0.46790  0.27990  Biso   1.000  O
  O60      1.0000 0.32070  0.38760  0.33270  Biso   1.000  O
  C121     1.0000 0.45380  0.31860  0.47810  Biso   1.000  C
  C122     1.0000 0.44330  0.25660  0.50600  Biso   1.000  C
  C123     1.0000 0.45970  0.24530  0.57250  Biso   1.000  C
  H61      1.0000 0.47830  0.27590  0.59940  Biso   1.000  H
  C124     1.0000 0.44880  0.18960  0.59890  Biso   1.000  C
  H62      1.0000 0.45960  0.18260  0.64330  Biso   1.000  H
  C125     1.0000 0.42220  0.14500  0.55920  Biso   1.000  C
  H63      1.0000 0.41500  0.10750  0.57730  Biso   1.000  H
  C126     1.0000 0.41670  0.20800  0.46720  Biso   1.000  C
  C127     1.0000 0.48530  0.96130  0.24990  Biso   1.000  C
  C128     1.0000 0.49540  0.99970  0.31060  Biso   1.000  C
  C129     1.0000 0.56170  0.00050  0.34330  Biso   1.000  C
  H64      1.0000 0.59740  0.97940  0.32650  Biso   1.000  H
  C130     1.0000 0.57450  0.03370  0.40240  Biso   1.000  C
  H65      1.0000 0.61820  0.03500  0.42460  Biso   1.000  H
  C131     1.0000 0.52070  0.06320  0.42480  Biso   1.000  C
  H66      1.0000 0.52810  0.08360  0.46430  Biso   1.000  H
  C132     1.0000 0.44380  0.03470  0.33570  Biso   1.000  C
  C133     1.0000 0.14290  0.99900  0.47650  Biso   1.000  C
  C134     1.0000 0.16780  0.05590  0.44450  Biso   1.000  C
  C135     1.0000 0.12110  0.10020  0.42230  Biso   1.000  C
  H67      1.0000 0.07390  0.09380  0.42380  Biso   1.000  H
  C136     1.0000 0.14530  0.15470  0.39770  Biso   1.000  C
  H68      1.0000 0.11450  0.18460  0.38240  Biso   1.000  H
  C137     1.0000 0.21530  0.16250  0.39690  Biso   1.000  C
  H69      1.0000 0.23160  0.19890  0.38210  Biso   1.000  H
  C138     1.0000 0.23820  0.06730  0.44100  Biso   1.000  C
  C139     1.0000 0.34510  0.83760  0.50900  Biso   1.000  C
  C140     1.0000 0.35910  0.80310  0.44550  Biso   1.000  C
  C141     1.0000 0.36370  0.74150  0.44800  Biso   1.000  C
  H70      1.0000 0.36570  0.72250  0.48840  Biso   1.000  H
  C142     1.0000 0.36540  0.70710  0.39220  Biso   1.000  C
  H71      1.0000 0.36830  0.66540  0.39430  Biso   1.000  H
  C143     1.0000 0.36250  0.73730  0.33280  Biso   1.000  C
  H72      1.0000 0.36100  0.71550  0.29400  Biso   1.000  H
  C144     1.0000 0.36260  0.83250  0.38510  Biso   1.000  C
  C145     1.0000 0.12080  0.87380  0.19750  Biso   1.000  C
  C146     1.0000 0.14740  0.85310  0.26650  Biso   1.000  C
  C147     1.0000 0.13340  0.79430  0.28380  Biso   1.000  C
  H73      1.0000 0.10870  0.76960  0.25360  Biso   1.000  H
  C148     1.0000 0.15510  0.77190  0.34420  Biso   1.000  C
  H74      1.0000 0.14600  0.73220  0.35490  Biso   1.000  H
  C149     1.0000 0.19100  0.80950  0.38930  Biso   1.000  C
  H75      1.0000 0.20430  0.79530  0.43120  Biso   1.000  H
  C150     1.0000 0.18600  0.88850  0.31310  Biso   1.000  C
  C151     1.0000 0.14020  0.05560  0.93910  Biso   1.000  C
  C152     1.0000 0.10280  0.00390  0.96780  Biso   1.000  C
  C153     1.0000 0.07050  0.95980  0.92550  Biso   1.000  C
  H76      1.0000 0.06840  0.96540  0.88050  Biso   1.000  H
  C154     1.0000 0.04250  0.90920  0.95010  Biso   1.000  C
  H77      1.0000 0.02120  0.88080  0.92200  Biso   1.000  H
  C155     1.0000 0.04600  0.90040  0.01730  Biso   1.000  C
  H78      1.0000 0.02920  0.86520  0.03470  Biso   1.000  H
  C156     1.0000 0.10050  0.99580  0.03450  Biso   1.000  C
  C157     1.0000 0.29260  0.83740  0.17930  Biso   1.000  C
  C158     1.0000 0.26550  0.86630  0.11590  Biso   1.000  C
  C159     1.0000 0.24680  0.82860  0.06300  Biso   1.000  C
  H79      1.0000 0.24640  0.78720  0.06910  Biso   1.000  H
  C160     1.0000 0.22910  0.85190  0.00230  Biso   1.000  C
  H80      1.0000 0.21670  0.82660  0.96710  Biso   1.000  H
  C161     1.0000 0.22990  0.91420  0.99350  Biso   1.000  C
  H81      1.0000 0.22030  0.93030  0.95190  Biso   1.000  H
  C162     1.0000 0.26240  0.92880  0.10540  Biso   1.000  C
  C163     1.0000 0.04110  0.07660  0.24480  Biso   1.000  C
  C164     1.0000 0.06340  0.13510  0.21820  Biso   1.000  C
  C165     1.0000 0.01360  0.17880  0.19570  Biso   1.000  C
  H82      1.0000 0.96710  0.17150  0.20060  Biso   1.000  H
  C166     1.0000 0.03190  0.23100  0.16700  Biso   1.000  C
  H83      1.0000 0.99870  0.25940  0.15310  Biso   1.000  H
  C167     1.0000 0.10150  0.24080  0.15910  Biso   1.000  C
  H84      1.0000 0.11430  0.27590  0.13890  Biso   1.000  H
  C168     1.0000 0.13330  0.14880  0.20910  Biso   1.000  C
  C169     1.0000 0.40310  0.05040  0.05800  Biso   1.000  C
  C170     1.0000 0.40740  0.09600  0.11260  Biso   1.000  C
  C171     1.0000 0.46780  0.09940  0.15560  Biso   1.000  C
  H85      1.0000 0.50520  0.07460  0.14930  Biso   1.000  H
  C172     1.0000 0.47150  0.13960  0.20720  Biso   1.000  C
  H86      1.0000 0.51150  0.14270  0.23540  Biso   1.000  H
  C173     1.0000 0.41520  0.17470  0.21580  Biso   1.000  C
  H87      1.0000 0.41750  0.20150  0.25070  Biso   1.000  H
  C174     1.0000 0.35260  0.13530  0.12430  Biso   1.000  C
  C175     1.0000 0.29350  0.41250  0.28120  Biso   1.000  C
  C176     1.0000 0.28180  0.37910  0.21670  Biso   1.000  C
  C177     1.0000 0.27250  0.41130  0.15790  Biso   1.000  C
  H88      1.0000 0.27570  0.45290  0.15880  Biso   1.000  H
  C178     1.0000 0.25900  0.38310  0.10010  Biso   1.000  C
  H89      1.0000 0.25110  0.40520  0.06180  Biso   1.000  H
  C179     1.0000 0.25710  0.32000  0.09840  Biso   1.000  C
  H90      1.0000 0.25060  0.30040  0.05840  Biso   1.000  H
  C180     1.0000 0.27550  0.31600  0.21180  Biso   1.000  C
  Ni25     1.0000 0.64816  0.80330  0.14370  Biso   1.000  Ni
  Ni26     1.0000 0.63486  0.60322  0.08747  Biso   1.000  Ni
  Ni27     1.0000 0.73729  0.43073  0.07415  Biso   1.000  Ni
  Ni28     1.0000 0.83052  0.50927  0.29451  Biso   1.000  Ni
  Ni29     1.0000 0.75339  0.54365  0.44715  Biso   1.000  Ni
  Ni30     1.0000 0.74434  0.69871  0.32058  Biso   1.000  Ni
  Ni31     1.0000 0.66986  0.45148  0.23576  Biso   1.000  Ni
  Ni32     1.0000 0.51969  0.43555  0.47327  Biso   1.000  Ni
  S31      1.0000 0.60306  0.70624  0.11716  Biso   1.000  S
  S32      1.0000 0.64064  0.54912  0.19713  Biso   1.000  S
  S33      1.0000 0.69150  0.52137  0.03179  Biso   1.000  S
  S34      1.0000 0.63106  0.41007  0.12409  Biso   1.000  S
  S35      1.0000 0.78577  0.46380  0.19176  Biso   1.000  S
  S36      1.0000 0.86722  0.54970  0.40762  Biso   1.000  S
  S37      1.0000 0.72007  0.48859  0.33969  Biso   1.000  S
  S38      1.0000 0.79196  0.60796  0.26515  Biso   1.000  S
  S39      1.0000 0.72654  0.64498  0.42280  Biso   1.000  S
  S40      1.0000 0.72688  0.76367  0.22466  Biso   1.000  S
  N31      1.0000 0.59430  0.65310  0.00590  Biso   1.000  N
  N32      1.0000 0.54270  0.56490  0.10630  Biso   1.000  N
  N33      1.0000 0.73920  0.62010  0.08370  Biso   1.000  N
  N34      1.0000 0.63790  0.29740  0.16930  Biso   1.000  N
  N35      1.0000 0.79330  0.36630  0.12690  Biso   1.000  N
  N36      1.0000 0.92540  0.44410  0.44280  Biso   1.000  N
  N37      1.0000 0.75560  0.45050  0.45560  Biso   1.000  N
  N38      1.0000 0.84930  0.70110  0.32030  Biso   1.000  N
  N39      1.0000 0.64330  0.67210  0.32400  Biso   1.000  N
  N40      1.0000 0.73560  0.78800  0.34640  Biso   1.000  N
  O61      1.0000 0.58630  0.83610  0.06850  Biso   1.000  O
  O62      1.0000 0.50080  0.35087  0.50520  Biso   1.000  O
  O63      1.0000 0.46180  0.44380  0.27590  Biso   1.000  O
  O64      1.0000 0.57590  0.44640  0.27390  Biso   1.000  O
  O65      1.0000 0.91120  0.50440  0.99390  Biso   1.000  O
  O66      1.0000 0.82460  0.45030  0.02840  Biso   1.000  O
  O67      1.0000 0.62290  0.32000  0.93990  Biso   1.000  O
  O68      1.0000 0.69920  0.37980  0.99490  Biso   1.000  O
  O69      1.0000 0.90340  0.33610  0.34170  Biso   1.000  O
  O70      1.0000 0.87840  0.42970  0.31700  Biso   1.000  O
  O71      1.0000 0.79820  0.56700  0.53860  Biso   1.000  O
  O72      1.0000 0.89050  0.58300  0.60880  Biso   1.000  O
  O73      1.0000 0.70340  0.28040  0.31860  Biso   1.000  O
  O74      1.0000 0.68810  0.36800  0.27100  Biso   1.000  O
  O75      1.0000 0.01930  0.57500  0.23580  Biso   1.000  O
  O76      1.0000 0.91980  0.53180  0.25370  Biso   1.000  O
  O77      1.0000 0.65290  0.53670  0.47310  Biso   1.000  O
  O78      1.0000 0.53820  0.52657  0.45380  Biso   1.000  O
  O79      1.0000 0.72120  0.96790  0.22010  Biso   1.000  O
  O80      1.0000 0.67930  0.88760  0.16730  Biso   1.000  O
  C181     1.0000 0.54620  0.81860  0.02190  Biso   1.000  C
  C182     1.0000 0.55670  0.75660  0.99400  Biso   1.000  C
  C183     1.0000 0.54030  0.74530  0.92750  Biso   1.000  C
  H91      1.0000 0.52170  0.77590  0.90060  Biso   1.000  H
  C184     1.0000 0.55120  0.68960  0.90110  Biso   1.000  C
  H92      1.0000 0.54040  0.68260  0.85670  Biso   1.000  H
  C185     1.0000 0.57780  0.64500  0.94080  Biso   1.000  C
  H93      1.0000 0.58500  0.60750  0.92270  Biso   1.000  H
  C186     1.0000 0.58330  0.70800  0.03280  Biso   1.000  C
  C187     1.0000 0.51470  0.46130  0.25010  Biso   1.000  C
  C188     1.0000 0.50460  0.49970  0.18940  Biso   1.000  C
  C189     1.0000 0.43830  0.50050  0.15670  Biso   1.000  C
  H94      1.0000 0.40260  0.47940  0.17350  Biso   1.000  H
  C190     1.0000 0.42550  0.53370  0.09760  Biso   1.000  C
  H95      1.0000 0.38180  0.53500  0.07540  Biso   1.000  H
  C191     1.0000 0.47930  0.56320  0.07520  Biso   1.000  C
  H96      1.0000 0.47190  0.58360  0.03570  Biso   1.000  H
  C192     1.0000 0.55620  0.53470  0.16430  Biso   1.000  C
  C193     1.0000 0.85710  0.49900  0.02350  Biso   1.000  C
  C194     1.0000 0.83220  0.55590  0.05550  Biso   1.000  C
  C195     1.0000 0.87890  0.60020  0.07770  Biso   1.000  C
  H97      1.0000 0.92610  0.59380  0.07620  Biso   1.000  H
  C196     1.0000 0.85470  0.65470  0.10230  Biso   1.000  C
  H98      1.0000 0.88550  0.68460  0.11760  Biso   1.000  H
  C197     1.0000 0.78470  0.66250  0.10310  Biso   1.000  C
  H99      1.0000 0.76840  0.69890  0.11790  Biso   1.000  H
  C198     1.0000 0.76180  0.56730  0.05900  Biso   1.000  C
  C199     1.0000 0.65490  0.33760  0.99100  Biso   1.000  C
  C200     1.0000 0.64090  0.30310  0.05450  Biso   1.000  C
  C201     1.0000 0.63630  0.24150  0.05200  Biso   1.000  C
  H100     1.0000 0.63430  0.22250  0.01160  Biso   1.000  H
  C202     1.0000 0.63460  0.20710  0.10780  Biso   1.000  C
  H101     1.0000 0.63170  0.16540  0.10570  Biso   1.000  H
  C203     1.0000 0.63750  0.23730  0.16720  Biso   1.000  C
  H102     1.0000 0.63900  0.21550  0.20600  Biso   1.000  H
  C204     1.0000 0.63740  0.33250  0.11490  Biso   1.000  C
  C205     1.0000 0.87920  0.37380  0.30250  Biso   1.000  C
  C206     1.0000 0.85260  0.35310  0.23350  Biso   1.000  C
  C207     1.0000 0.86660  0.29430  0.21620  Biso   1.000  C
  H103     1.0000 0.89130  0.26960  0.24640  Biso   1.000  H
  C208     1.0000 0.84490  0.27190  0.15580  Biso   1.000  C
  H104     1.0000 0.85400  0.23220  0.14510  Biso   1.000  H
  C209     1.0000 0.80900  0.30950  0.11070  Biso   1.000  C
  H105     1.0000 0.79570  0.29530  0.06880  Biso   1.000  H
  C210     1.0000 0.81400  0.38850  0.18690  Biso   1.000  C
  C211     1.0000 0.85980  0.55560  0.56090  Biso   1.000  C
  C212     1.0000 0.89720  0.50390  0.53220  Biso   1.000  C
  C213     1.0000 0.92950  0.45980  0.57450  Biso   1.000  C
  H106     1.0000 0.93160  0.46540  0.61950  Biso   1.000  H
  C214     1.0000 0.95750  0.40920  0.54990  Biso   1.000  C
  H107     1.0000 0.97880  0.38080  0.57800  Biso   1.000  H
  C215     1.0000 0.95400  0.40040  0.48270  Biso   1.000  C
  H108     1.0000 0.97080  0.36520  0.46530  Biso   1.000  H
  C216     1.0000 0.89950  0.49580  0.46550  Biso   1.000  C
  C217     1.0000 0.70740  0.33740  0.32070  Biso   1.000  C
  C218     1.0000 0.73450  0.36630  0.38410  Biso   1.000  C
  C219     1.0000 0.75320  0.32860  0.43700  Biso   1.000  C
  H109     1.0000 0.75360  0.28720  0.43090  Biso   1.000  H
  C220     1.0000 0.77090  0.35190  0.49770  Biso   1.000  C
  H110     1.0000 0.78330  0.32660  0.53290  Biso   1.000  H
  C221     1.0000 0.77010  0.41420  0.50650  Biso   1.000  C
  H111     1.0000 0.77970  0.43030  0.54810  Biso   1.000  H
  C222     1.0000 0.73760  0.42880  0.39460  Biso   1.000  C
  C223     1.0000 0.95890  0.57660  0.25520  Biso   1.000  C
  C224     1.0000 0.93660  0.63510  0.28180  Biso   1.000  C
  C225     1.0000 0.98640  0.67880  0.30430  Biso   1.000  C
  H112     1.0000 0.03290  0.67150  0.29940  Biso   1.000  H
  C226     1.0000 0.96810  0.73100  0.33300  Biso   1.000  C
  H113     1.0000 0.00130  0.75940  0.34690  Biso   1.000  H
  C227     1.0000 0.89850  0.74080  0.34090  Biso   1.000  C
  H114     1.0000 0.88570  0.77590  0.36110  Biso   1.000  H
  C228     1.0000 0.86670  0.64880  0.29090  Biso   1.000  C
  C229     1.0000 0.59690  0.55040  0.44200  Biso   1.000  C
  C230     1.0000 0.59260  0.59600  0.38740  Biso   1.000  C
  C231     1.0000 0.53220  0.59940  0.34440  Biso   1.000  C
  H115     1.0000 0.49480  0.57460  0.35070  Biso   1.000  H
  C232     1.0000 0.52850  0.63960  0.29280  Biso   1.000  C
  H116     1.0000 0.48850  0.64270  0.26460  Biso   1.000  H
  C233     1.0000 0.58480  0.67470  0.28420  Biso   1.000  C
  H117     1.0000 0.58250  0.70150  0.24930  Biso   1.000  H
  C234     1.0000 0.64740  0.63530  0.37570  Biso   1.000  C
  C235     1.0000 0.70650  0.91250  0.21880  Biso   1.000  C
  C236     1.0000 0.71820  0.87910  0.28330  Biso   1.000  C
  C237     1.0000 0.72750  0.91130  0.34210  Biso   1.000  C
  H118     1.0000 0.72430  0.95290  0.34120  Biso   1.000  H
  C238     1.0000 0.74100  0.88310  0.39990  Biso   1.000  C
  H119     1.0000 0.74890  0.90520  0.43820  Biso   1.000  H
  C239     1.0000 0.74290  0.82000  0.40160  Biso   1.000  C
  H120     1.0000 0.74940  0.80040  0.44160  Biso   1.000  H
  C240     1.0000 0.72450  0.81600  0.28820  Biso   1.000  C
