data_image0
_cell_length_a       19.1868
_cell_length_b       18.4625
_cell_length_c       11.5076
_cell_angle_alpha    90
_cell_angle_beta     112.923
_cell_angle_gamma    90

_symmetry_space_group_name_H-M    "P 1"
_symmetry_int_tables_number       1

loop_
  _symmetry_equiv_pos_as_xyz
  'x, y, z'

loop_
  _atom_site_label
  _atom_site_occupancy
  _atom_site_fract_x
  _atom_site_fract_y
  _atom_site_fract_z
  _atom_site_thermal_displace_type
  _atom_site_B_iso_or_equiv
  _atom_site_type_symbol
  C1       1.0000 0.41087  0.28897  0.29436  Biso   1.000  C
  C2       1.0000 0.35790  0.24655  0.33561  Biso   1.000  C
  C3       1.0000 0.28880  0.22378  0.24773  Biso   1.000  C
  H1       1.0000 0.27470  0.23530  0.16110  Biso   1.000  H
  C4       1.0000 0.23995  0.18410  0.28595  Biso   1.000  C
  C5       1.0000 0.26033  0.16796  0.41326  Biso   1.000  C
  H2       1.0000 0.22710  0.14110  0.44010  Biso   1.000  H
  C6       1.0000 0.32929  0.19133  0.50004  Biso   1.000  C
  C7       1.0000 0.37877  0.23044  0.46333  Biso   1.000  C
  H3       1.0000 0.42610  0.24610  0.52400  Biso   1.000  H
  C8       1.0000 0.16553  0.15756  0.19160  Biso   1.000  C
  C9       1.0000 0.32590  0.12951  0.79172  Biso   1.000  C
  C10      1.0000 0.39994  0.14719  0.88863  Biso   1.000  C
  C11      1.0000 0.41310  0.13382  0.02497  Biso   1.000  C
  H4       1.0000 0.39820  0.17760  0.05940  Biso   1.000  H
  H5       1.0000 0.46780  0.12560  0.07370  Biso   1.000  H
  C12      1.0000 0.36898  0.06901  0.04279  Biso   1.000  C
  C13      1.0000 0.28508  0.08104  0.96180  Biso   1.000  C
  H6       1.0000 0.25640  0.03800  0.96930  Biso   1.000  H
  H7       1.0000 0.26710  0.12300  0.99600  Biso   1.000  H
  C14      1.0000 0.26730  0.09446  0.82381  Biso   1.000  C
  C15      1.0000 0.39653  0.99917  0.00410  Biso   1.000  C
  H8       1.0000 0.36760  0.95810  0.01610  Biso   1.000  H
  H9       1.0000 0.38930  0.00220  0.91510  Biso   1.000  H
  H10      1.0000 0.45040  0.99230  0.05620  Biso   1.000  H
  C16      1.0000 0.37888  0.06249  0.18080  Biso   1.000  C
  H11      1.0000 0.36140  0.10710  0.20680  Biso   1.000  H
  H12      1.0000 0.34920  0.02140  0.19020  Biso   1.000  H
  H13      1.0000 0.43250  0.05480  0.23370  Biso   1.000  H
  N1       1.0000 0.35214  0.17535  0.63015  Biso   1.000  N
  N2       1.0000 0.30574  0.14301  0.66930  Biso   1.000  N
  O1       1.0000 0.46950  0.31251  0.37999  Biso   1.000  O
  O2       1.0000 0.39180  0.29773  0.17813  Biso   1.000  O
  O3       1.0000 0.12362  0.12446  0.23310  Biso   1.000  O
  O4       1.0000 0.15153  0.17108  0.07708  Biso   1.000  O
  O5       1.0000 0.45014  0.17273  0.85959  Biso   1.000  O
  O6       1.0000 0.20536  0.07738  0.74406  Biso   1.000  O
  Zn1      1.0000 0.56673  0.36286  0.42040  Biso   1.000  Zn
  H14      1.0000 0.39840  0.18940  0.68500  Biso   1.000  H
  C17      1.0000 0.58913  0.28897  0.20564  Biso   1.000  C
  C18      1.0000 0.64210  0.24655  0.16439  Biso   1.000  C
  C19      1.0000 0.71120  0.22378  0.25227  Biso   1.000  C
  H15      1.0000 0.72530  0.23530  0.33890  Biso   1.000  H
  C20      1.0000 0.76005  0.18410  0.21405  Biso   1.000  C
  C21      1.0000 0.73967  0.16796  0.08674  Biso   1.000  C
  H16      1.0000 0.77290  0.14110  0.05990  Biso   1.000  H
  C22      1.0000 0.67071  0.19133  0.99996  Biso   1.000  C
  C23      1.0000 0.62123  0.23044  0.03667  Biso   1.000  C
  H17      1.0000 0.57390  0.24610  0.97600  Biso   1.000  H
  C24      1.0000 0.83447  0.15756  0.30840  Biso   1.000  C
  C25      1.0000 0.67410  0.12951  0.70828  Biso   1.000  C
  C26      1.0000 0.60006  0.14719  0.61137  Biso   1.000  C
  C27      1.0000 0.58690  0.13382  0.47503  Biso   1.000  C
  H18      1.0000 0.60180  0.17760  0.44060  Biso   1.000  H
  H19      1.0000 0.53220  0.12560  0.42630  Biso   1.000  H
  C28      1.0000 0.63102  0.06901  0.45721  Biso   1.000  C
  C29      1.0000 0.71492  0.08104  0.53820  Biso   1.000  C
  H20      1.0000 0.74360  0.03800  0.53070  Biso   1.000  H
  H21      1.0000 0.73290  0.12300  0.50400  Biso   1.000  H
  C30      1.0000 0.73270  0.09446  0.67619  Biso   1.000  C
  C31      1.0000 0.60347  0.99917  0.49590  Biso   1.000  C
  H22      1.0000 0.63240  0.95810  0.48390  Biso   1.000  H
  H23      1.0000 0.61070  0.00220  0.58490  Biso   1.000  H
  H24      1.0000 0.54960  0.99230  0.44380  Biso   1.000  H
  C32      1.0000 0.62112  0.06249  0.31920  Biso   1.000  C
  H25      1.0000 0.63860  0.10710  0.29320  Biso   1.000  H
  H26      1.0000 0.65080  0.02140  0.30980  Biso   1.000  H
  H27      1.0000 0.56750  0.05480  0.26630  Biso   1.000  H
  N3       1.0000 0.64786  0.17535  0.86985  Biso   1.000  N
  N4       1.0000 0.69426  0.14301  0.83070  Biso   1.000  N
  O7       1.0000 0.53050  0.31251  0.12001  Biso   1.000  O
  O8       1.0000 0.60820  0.29773  0.32187  Biso   1.000  O
  O9       1.0000 0.87638  0.12446  0.26690  Biso   1.000  O
  O10      1.0000 0.84847  0.17108  0.42292  Biso   1.000  O
  O11      1.0000 0.54986  0.17273  0.64041  Biso   1.000  O
  O12      1.0000 0.79464  0.07738  0.75594  Biso   1.000  O
  Zn2      1.0000 0.43327  0.36286  0.07960  Biso   1.000  Zn
  H28      1.0000 0.60160  0.18940  0.81500  Biso   1.000  H
  C33      1.0000 0.08913  0.21103  0.70564  Biso   1.000  C
  C34      1.0000 0.14210  0.25345  0.66439  Biso   1.000  C
  C35      1.0000 0.21120  0.27622  0.75227  Biso   1.000  C
  H29      1.0000 0.22530  0.26470  0.83890  Biso   1.000  H
  C36      1.0000 0.26005  0.31590  0.71405  Biso   1.000  C
  C37      1.0000 0.23967  0.33204  0.58674  Biso   1.000  C
  H30      1.0000 0.27290  0.35890  0.55990  Biso   1.000  H
  C38      1.0000 0.17071  0.30867  0.49996  Biso   1.000  C
  C39      1.0000 0.12123  0.26956  0.53667  Biso   1.000  C
  H31      1.0000 0.07390  0.25390  0.47600  Biso   1.000  H
  C40      1.0000 0.33447  0.34244  0.80840  Biso   1.000  C
  C41      1.0000 0.17410  0.37049  0.20828  Biso   1.000  C
  C42      1.0000 0.10006  0.35281  0.11137  Biso   1.000  C
  C43      1.0000 0.08690  0.36618  0.97503  Biso   1.000  C
  H32      1.0000 0.10180  0.32240  0.94060  Biso   1.000  H
  H33      1.0000 0.03220  0.37440  0.92630  Biso   1.000  H
  C44      1.0000 0.13102  0.43099  0.95721  Biso   1.000  C
  C45      1.0000 0.21492  0.41896  0.03820  Biso   1.000  C
  H34      1.0000 0.24360  0.46200  0.03070  Biso   1.000  H
  H35      1.0000 0.23290  0.37700  0.00400  Biso   1.000  H
  C46      1.0000 0.23270  0.40554  0.17619  Biso   1.000  C
  C47      1.0000 0.10347  0.50083  0.99590  Biso   1.000  C
  H36      1.0000 0.13240  0.54190  0.98390  Biso   1.000  H
  H37      1.0000 0.11070  0.49780  0.08490  Biso   1.000  H
  H38      1.0000 0.04960  0.50770  0.94380  Biso   1.000  H
  C48      1.0000 0.12112  0.43751  0.81920  Biso   1.000  C
  H39      1.0000 0.13860  0.39290  0.79320  Biso   1.000  H
  H40      1.0000 0.15080  0.47860  0.80980  Biso   1.000  H
  H41      1.0000 0.06750  0.44520  0.76630  Biso   1.000  H
  N5       1.0000 0.14786  0.32465  0.36985  Biso   1.000  N
  N6       1.0000 0.19426  0.35699  0.33070  Biso   1.000  N
  O13      1.0000 0.03050  0.18749  0.62001  Biso   1.000  O
  O14      1.0000 0.10820  0.20227  0.82187  Biso   1.000  O
  O15      1.0000 0.37638  0.37554  0.76690  Biso   1.000  O
  O16      1.0000 0.34847  0.32892  0.92292  Biso   1.000  O
  O17      1.0000 0.04986  0.32727  0.14041  Biso   1.000  O
  O18      1.0000 0.29464  0.42262  0.25594  Biso   1.000  O
  Zn3      1.0000 0.93327  0.13714  0.57960  Biso   1.000  Zn
  H42      1.0000 0.10160  0.31060  0.31500  Biso   1.000  H
  C49      1.0000 0.91087  0.21103  0.79436  Biso   1.000  C
  C50      1.0000 0.85790  0.25345  0.83561  Biso   1.000  C
  C51      1.0000 0.78880  0.27622  0.74773  Biso   1.000  C
  H43      1.0000 0.77470  0.26470  0.66110  Biso   1.000  H
  C52      1.0000 0.73995  0.31590  0.78595  Biso   1.000  C
  C53      1.0000 0.76033  0.33204  0.91326  Biso   1.000  C
  H44      1.0000 0.72710  0.35890  0.94010  Biso   1.000  H
  C54      1.0000 0.82929  0.30867  0.00004  Biso   1.000  C
  C55      1.0000 0.87877  0.26956  0.96333  Biso   1.000  C
  H45      1.0000 0.92610  0.25390  0.02400  Biso   1.000  H
  C56      1.0000 0.66553  0.34244  0.69160  Biso   1.000  C
  C57      1.0000 0.82590  0.37049  0.29172  Biso   1.000  C
  C58      1.0000 0.89994  0.35281  0.38863  Biso   1.000  C
  C59      1.0000 0.91310  0.36618  0.52497  Biso   1.000  C
  H46      1.0000 0.89820  0.32240  0.55940  Biso   1.000  H
  H47      1.0000 0.96780  0.37440  0.57370  Biso   1.000  H
  C60      1.0000 0.86898  0.43099  0.54279  Biso   1.000  C
  C61      1.0000 0.78508  0.41896  0.46180  Biso   1.000  C
  H48      1.0000 0.75640  0.46200  0.46930  Biso   1.000  H
  H49      1.0000 0.76710  0.37700  0.49600  Biso   1.000  H
  C62      1.0000 0.76730  0.40554  0.32381  Biso   1.000  C
  C63      1.0000 0.89653  0.50083  0.50410  Biso   1.000  C
  H50      1.0000 0.86760  0.54190  0.51610  Biso   1.000  H
  H51      1.0000 0.88930  0.49780  0.41510  Biso   1.000  H
  H52      1.0000 0.95040  0.50770  0.55620  Biso   1.000  H
  C64      1.0000 0.87888  0.43751  0.68080  Biso   1.000  C
  H53      1.0000 0.86140  0.39290  0.70680  Biso   1.000  H
  H54      1.0000 0.84920  0.47860  0.69020  Biso   1.000  H
  H55      1.0000 0.93250  0.44520  0.73370  Biso   1.000  H
  N7       1.0000 0.85214  0.32465  0.13015  Biso   1.000  N
  N8       1.0000 0.80574  0.35699  0.16930  Biso   1.000  N
  O19      1.0000 0.96950  0.18749  0.87999  Biso   1.000  O
  O20      1.0000 0.89180  0.20227  0.67813  Biso   1.000  O
  O21      1.0000 0.62362  0.37554  0.73310  Biso   1.000  O
  O22      1.0000 0.65153  0.32892  0.57708  Biso   1.000  O
  O23      1.0000 0.95014  0.32727  0.35959  Biso   1.000  O
  O24      1.0000 0.70536  0.42262  0.24406  Biso   1.000  O
  Zn4      1.0000 0.06673  0.13714  0.92040  Biso   1.000  Zn
  H56      1.0000 0.89840  0.31060  0.18500  Biso   1.000  H
  C65      1.0000 0.91087  0.78897  0.29436  Biso   1.000  C
  C66      1.0000 0.85790  0.74655  0.33561  Biso   1.000  C
  C67      1.0000 0.78880  0.72378  0.24773  Biso   1.000  C
  H57      1.0000 0.77470  0.73530  0.16110  Biso   1.000  H
  C68      1.0000 0.73995  0.68410  0.28595  Biso   1.000  C
  C69      1.0000 0.76033  0.66796  0.41326  Biso   1.000  C
  H58      1.0000 0.72710  0.64110  0.44010  Biso   1.000  H
  C70      1.0000 0.82929  0.69133  0.50004  Biso   1.000  C
  C71      1.0000 0.87877  0.73044  0.46333  Biso   1.000  C
  H59      1.0000 0.92610  0.74610  0.52400  Biso   1.000  H
  C72      1.0000 0.66553  0.65756  0.19160  Biso   1.000  C
  C73      1.0000 0.82590  0.62951  0.79172  Biso   1.000  C
  C74      1.0000 0.89994  0.64719  0.88863  Biso   1.000  C
  C75      1.0000 0.91310  0.63382  0.02497  Biso   1.000  C
  H60      1.0000 0.89820  0.67760  0.05940  Biso   1.000  H
  H61      1.0000 0.96780  0.62560  0.07370  Biso   1.000  H
  C76      1.0000 0.86898  0.56901  0.04279  Biso   1.000  C
  C77      1.0000 0.78508  0.58104  0.96180  Biso   1.000  C
  H62      1.0000 0.75640  0.53800  0.96930  Biso   1.000  H
  H63      1.0000 0.76710  0.62300  0.99600  Biso   1.000  H
  C78      1.0000 0.76730  0.59446  0.82381  Biso   1.000  C
  C79      1.0000 0.89653  0.49917  0.00410  Biso   1.000  C
  H64      1.0000 0.86760  0.45810  0.01610  Biso   1.000  H
  H65      1.0000 0.88930  0.50220  0.91510  Biso   1.000  H
  H66      1.0000 0.95040  0.49230  0.05620  Biso   1.000  H
  C80      1.0000 0.87888  0.56249  0.18080  Biso   1.000  C
  H67      1.0000 0.86140  0.60710  0.20680  Biso   1.000  H
  H68      1.0000 0.84920  0.52140  0.19020  Biso   1.000  H
  H69      1.0000 0.93250  0.55480  0.23370  Biso   1.000  H
  N9       1.0000 0.85214  0.67535  0.63015  Biso   1.000  N
  N10      1.0000 0.80574  0.64301  0.66930  Biso   1.000  N
  O25      1.0000 0.96950  0.81251  0.37999  Biso   1.000  O
  O26      1.0000 0.89180  0.79773  0.17813  Biso   1.000  O
  O27      1.0000 0.62362  0.62446  0.23310  Biso   1.000  O
  O28      1.0000 0.65153  0.67108  0.07708  Biso   1.000  O
  O29      1.0000 0.95014  0.67273  0.85959  Biso   1.000  O
  O30      1.0000 0.70536  0.57738  0.74406  Biso   1.000  O
  Zn5      1.0000 0.06673  0.86286  0.42040  Biso   1.000  Zn
  H70      1.0000 0.89840  0.68940  0.68500  Biso   1.000  H
  C81      1.0000 0.08913  0.78897  0.20564  Biso   1.000  C
  C82      1.0000 0.14210  0.74655  0.16439  Biso   1.000  C
  C83      1.0000 0.21120  0.72378  0.25227  Biso   1.000  C
  H71      1.0000 0.22530  0.73530  0.33890  Biso   1.000  H
  C84      1.0000 0.26005  0.68410  0.21405  Biso   1.000  C
  C85      1.0000 0.23967  0.66796  0.08674  Biso   1.000  C
  H72      1.0000 0.27290  0.64110  0.05990  Biso   1.000  H
  C86      1.0000 0.17071  0.69133  0.99996  Biso   1.000  C
  C87      1.0000 0.12123  0.73044  0.03667  Biso   1.000  C
  H73      1.0000 0.07390  0.74610  0.97600  Biso   1.000  H
  C88      1.0000 0.33447  0.65756  0.30840  Biso   1.000  C
  C89      1.0000 0.17410  0.62951  0.70828  Biso   1.000  C
  C90      1.0000 0.10006  0.64719  0.61137  Biso   1.000  C
  C91      1.0000 0.08690  0.63382  0.47503  Biso   1.000  C
  H74      1.0000 0.10180  0.67760  0.44060  Biso   1.000  H
  H75      1.0000 0.03220  0.62560  0.42630  Biso   1.000  H
  C92      1.0000 0.13102  0.56901  0.45721  Biso   1.000  C
  C93      1.0000 0.21492  0.58104  0.53820  Biso   1.000  C
  H76      1.0000 0.24360  0.53800  0.53070  Biso   1.000  H
  H77      1.0000 0.23290  0.62300  0.50400  Biso   1.000  H
  C94      1.0000 0.23270  0.59446  0.67619  Biso   1.000  C
  C95      1.0000 0.10347  0.49917  0.49590  Biso   1.000  C
  H78      1.0000 0.13240  0.45810  0.48390  Biso   1.000  H
  H79      1.0000 0.11070  0.50220  0.58490  Biso   1.000  H
  H80      1.0000 0.04960  0.49230  0.44380  Biso   1.000  H
  C96      1.0000 0.12112  0.56249  0.31920  Biso   1.000  C
  H81      1.0000 0.13860  0.60710  0.29320  Biso   1.000  H
  H82      1.0000 0.15080  0.52140  0.30980  Biso   1.000  H
  H83      1.0000 0.06750  0.55480  0.26630  Biso   1.000  H
  N11      1.0000 0.14786  0.67535  0.86985  Biso   1.000  N
  N12      1.0000 0.19426  0.64301  0.83070  Biso   1.000  N
  O31      1.0000 0.03050  0.81251  0.12001  Biso   1.000  O
  O32      1.0000 0.10820  0.79773  0.32187  Biso   1.000  O
  O33      1.0000 0.37638  0.62446  0.26690  Biso   1.000  O
  O34      1.0000 0.34847  0.67108  0.42292  Biso   1.000  O
  O35      1.0000 0.04986  0.67273  0.64041  Biso   1.000  O
  O36      1.0000 0.29464  0.57738  0.75594  Biso   1.000  O
  Zn6      1.0000 0.93327  0.86286  0.07960  Biso   1.000  Zn
  H84      1.0000 0.10160  0.68940  0.81500  Biso   1.000  H
  C97      1.0000 0.58913  0.71103  0.70564  Biso   1.000  C
  C98      1.0000 0.64210  0.75345  0.66439  Biso   1.000  C
  C99      1.0000 0.71120  0.77622  0.75227  Biso   1.000  C
  H85      1.0000 0.72530  0.76470  0.83890  Biso   1.000  H
  C100     1.0000 0.76005  0.81590  0.71405  Biso   1.000  C
  C101     1.0000 0.73967  0.83204  0.58674  Biso   1.000  C
  H86      1.0000 0.77290  0.85890  0.55990  Biso   1.000  H
  C102     1.0000 0.67071  0.80867  0.49996  Biso   1.000  C
  C103     1.0000 0.62123  0.76956  0.53667  Biso   1.000  C
  H87      1.0000 0.57390  0.75390  0.47600  Biso   1.000  H
  C104     1.0000 0.83447  0.84244  0.80840  Biso   1.000  C
  C105     1.0000 0.67410  0.87049  0.20828  Biso   1.000  C
  C106     1.0000 0.60006  0.85281  0.11137  Biso   1.000  C
  C107     1.0000 0.58690  0.86618  0.97503  Biso   1.000  C
  H88      1.0000 0.60180  0.82240  0.94060  Biso   1.000  H
  H89      1.0000 0.53220  0.87440  0.92630  Biso   1.000  H
  C108     1.0000 0.63102  0.93099  0.95721  Biso   1.000  C
  C109     1.0000 0.71492  0.91896  0.03820  Biso   1.000  C
  H90      1.0000 0.74360  0.96200  0.03070  Biso   1.000  H
  H91      1.0000 0.73290  0.87700  0.00400  Biso   1.000  H
  C110     1.0000 0.73270  0.90554  0.17619  Biso   1.000  C
  C111     1.0000 0.60347  0.00083  0.99590  Biso   1.000  C
  H92      1.0000 0.63240  0.04190  0.98390  Biso   1.000  H
  H93      1.0000 0.61070  0.99780  0.08490  Biso   1.000  H
  H94      1.0000 0.54960  0.00770  0.94380  Biso   1.000  H
  C112     1.0000 0.62112  0.93751  0.81920  Biso   1.000  C
  H95      1.0000 0.63860  0.89290  0.79320  Biso   1.000  H
  H96      1.0000 0.65080  0.97860  0.80980  Biso   1.000  H
  H97      1.0000 0.56750  0.94520  0.76630  Biso   1.000  H
  N13      1.0000 0.64786  0.82465  0.36985  Biso   1.000  N
  N14      1.0000 0.69426  0.85699  0.33070  Biso   1.000  N
  O37      1.0000 0.53050  0.68749  0.62001  Biso   1.000  O
  O38      1.0000 0.60820  0.70227  0.82187  Biso   1.000  O
  O39      1.0000 0.87638  0.87554  0.76690  Biso   1.000  O
  O40      1.0000 0.84847  0.82892  0.92292  Biso   1.000  O
  O41      1.0000 0.54986  0.82727  0.14041  Biso   1.000  O
  O42      1.0000 0.79464  0.92262  0.25594  Biso   1.000  O
  Zn7      1.0000 0.43327  0.63714  0.57960  Biso   1.000  Zn
  H98      1.0000 0.60160  0.81060  0.31500  Biso   1.000  H
  C113     1.0000 0.41087  0.71103  0.79436  Biso   1.000  C
  C114     1.0000 0.35790  0.75345  0.83561  Biso   1.000  C
  C115     1.0000 0.28880  0.77622  0.74773  Biso   1.000  C
  H99      1.0000 0.27470  0.76470  0.66110  Biso   1.000  H
  C116     1.0000 0.23995  0.81590  0.78595  Biso   1.000  C
  C117     1.0000 0.26033  0.83204  0.91326  Biso   1.000  C
  H100     1.0000 0.22710  0.85890  0.94010  Biso   1.000  H
  C118     1.0000 0.32929  0.80867  0.00004  Biso   1.000  C
  C119     1.0000 0.37877  0.76956  0.96333  Biso   1.000  C
  H101     1.0000 0.42610  0.75390  0.02400  Biso   1.000  H
  C120     1.0000 0.16553  0.84244  0.69160  Biso   1.000  C
  C121     1.0000 0.32590  0.87049  0.29172  Biso   1.000  C
  C122     1.0000 0.39994  0.85281  0.38863  Biso   1.000  C
  C123     1.0000 0.41310  0.86618  0.52497  Biso   1.000  C
  H102     1.0000 0.39820  0.82240  0.55940  Biso   1.000  H
  H103     1.0000 0.46780  0.87440  0.57370  Biso   1.000  H
  C124     1.0000 0.36898  0.93099  0.54279  Biso   1.000  C
  C125     1.0000 0.28508  0.91896  0.46180  Biso   1.000  C
  H104     1.0000 0.25640  0.96200  0.46930  Biso   1.000  H
  H105     1.0000 0.26710  0.87700  0.49600  Biso   1.000  H
  C126     1.0000 0.26730  0.90554  0.32381  Biso   1.000  C
  C127     1.0000 0.39653  0.00083  0.50410  Biso   1.000  C
  H106     1.0000 0.36760  0.04190  0.51610  Biso   1.000  H
  H107     1.0000 0.38930  0.99780  0.41510  Biso   1.000  H
  H108     1.0000 0.45040  0.00770  0.55620  Biso   1.000  H
  C128     1.0000 0.37888  0.93751  0.68080  Biso   1.000  C
  H109     1.0000 0.36140  0.89290  0.70680  Biso   1.000  H
  H110     1.0000 0.34920  0.97860  0.69020  Biso   1.000  H
  H111     1.0000 0.43250  0.94520  0.73370  Biso   1.000  H
  N15      1.0000 0.35214  0.82465  0.13015  Biso   1.000  N
  N16      1.0000 0.30574  0.85699  0.16930  Biso   1.000  N
  O43      1.0000 0.46950  0.68749  0.87999  Biso   1.000  O
  O44      1.0000 0.39180  0.70227  0.67813  Biso   1.000  O
  O45      1.0000 0.12362  0.87554  0.73310  Biso   1.000  O
  O46      1.0000 0.15153  0.82892  0.57708  Biso   1.000  O
  O47      1.0000 0.45014  0.82727  0.35959  Biso   1.000  O
  O48      1.0000 0.20536  0.92262  0.24406  Biso   1.000  O
  Zn8      1.0000 0.56673  0.63714  0.92040  Biso   1.000  Zn
  H112     1.0000 0.39840  0.81060  0.18500  Biso   1.000  H
