data_image0
_cell_length_a       12.814
_cell_length_b       6.6459
_cell_length_c       14.167
_cell_angle_alpha    90
_cell_angle_beta     115.913
_cell_angle_gamma    90

_symmetry_space_group_name_H-M    "P 1"
_symmetry_int_tables_number       1

loop_
  _symmetry_equiv_pos_as_xyz
  'x, y, z'

loop_
  _atom_site_label
  _atom_site_occupancy
  _atom_site_fract_x
  _atom_site_fract_y
  _atom_site_fract_z
  _atom_site_thermal_displace_type
  _atom_site_B_iso_or_equiv
  _atom_site_type_symbol
  O1       1.0000 0.19370  0.01620  0.07640  Biso   1.000  O
  H1       1.0000 0.20500  0.09100  0.12500  Biso   1.000  H
  O2       1.0000 0.80630  0.51620  0.92360  Biso   1.000  O
  H2       1.0000 0.79500  0.59100  0.87500  Biso   1.000  H
  O3       1.0000 0.80630  0.98380  0.92360  Biso   1.000  O
  H3       1.0000 0.79500  0.90900  0.87500  Biso   1.000  H
  O4       1.0000 0.19370  0.48380  0.07640  Biso   1.000  O
  H4       1.0000 0.20500  0.40900  0.12500  Biso   1.000  H
  Zn1      1.0000 0.81460  0.75000  0.01076  Biso   1.000  Zn
  Zn2      1.0000 0.12649  0.75000  0.02608  Biso   1.000  Zn
  N1       1.0000 0.65170  0.75000  0.01980  Biso   1.000  N
  N2       1.0000 0.86240  0.75000  0.16930  Biso   1.000  N
  O5       1.0000 0.01250  0.75000  0.09180  Biso   1.000  O
  O6       1.0000 0.16230  0.75000  0.25000  Biso   1.000  O
  O7       1.0000 0.98770  0.75000  0.86810  Biso   1.000  O
  O8       1.0000 0.16790  0.75000  0.89280  Biso   1.000  O
  C1       1.0000 0.54570  0.75000  0.93910  Biso   1.000  C
  H5       1.0000 0.53980  0.75000  0.87130  Biso   1.000  H
  C2       1.0000 0.44500  0.75000  0.95160  Biso   1.000  C
  H6       1.0000 0.37290  0.75000  0.89350  Biso   1.000  H
  C3       1.0000 0.45310  0.75000  0.05210  Biso   1.000  C
  H7       1.0000 0.38660  0.75000  0.06290  Biso   1.000  H
  C4       1.0000 0.56030  0.75000  0.13510  Biso   1.000  C
  H8       1.0000 0.56720  0.75000  0.20320  Biso   1.000  H
  C5       1.0000 0.65930  0.75000  0.11830  Biso   1.000  C
  C6       1.0000 0.77920  0.75000  0.20420  Biso   1.000  C
  C7       1.0000 0.80740  0.75000  0.30930  Biso   1.000  C
  H9       1.0000 0.74890  0.75000  0.33140  Biso   1.000  H
  C8       1.0000 0.92360  0.75000  0.38350  Biso   1.000  C
  C9       1.0000 0.00660  0.75000  0.34600  Biso   1.000  C
  H10      1.0000 0.08500  0.75000  0.39250  Biso   1.000  H
  C10      1.0000 0.97280  0.75000  0.23930  Biso   1.000  C
  C11      1.0000 0.05820  0.75000  0.19260  Biso   1.000  C
  C12      1.0000 0.95770  0.75000  0.49990  Biso   1.000  C
  C13      1.0000 0.07410  0.75000  0.57180  Biso   1.000  C
  H11      1.0000 0.13060  0.75000  0.54740  Biso   1.000  H
  C14      1.0000 0.10730  0.75000  0.67780  Biso   1.000  C
  H12      1.0000 0.18580  0.75000  0.72430  Biso   1.000  H
  C15      1.0000 0.02330  0.75000  0.71690  Biso   1.000  C
  C16      1.0000 0.90810  0.75000  0.64560  Biso   1.000  C
  H13      1.0000 0.85120  0.75000  0.66970  Biso   1.000  H
  C17      1.0000 0.87560  0.75000  0.53850  Biso   1.000  C
  H14      1.0000 0.79720  0.75000  0.49190  Biso   1.000  H
  C18      1.0000 0.06160  0.75000  0.83190  Biso   1.000  C
  Zn3      1.0000 0.18540  0.25000  0.98924  Biso   1.000  Zn
  Zn4      1.0000 0.87351  0.25000  0.97392  Biso   1.000  Zn
  N3       1.0000 0.34830  0.25000  0.98020  Biso   1.000  N
  N4       1.0000 0.13760  0.25000  0.83070  Biso   1.000  N
  O9       1.0000 0.98750  0.25000  0.90820  Biso   1.000  O
  O10      1.0000 0.83770  0.25000  0.75000  Biso   1.000  O
  O11      1.0000 0.01230  0.25000  0.13190  Biso   1.000  O
  O12      1.0000 0.83210  0.25000  0.10720  Biso   1.000  O
  C19      1.0000 0.45430  0.25000  0.06090  Biso   1.000  C
  H15      1.0000 0.46020  0.25000  0.12870  Biso   1.000  H
  C20      1.0000 0.55500  0.25000  0.04840  Biso   1.000  C
  H16      1.0000 0.62710  0.25000  0.10650  Biso   1.000  H
  C21      1.0000 0.54690  0.25000  0.94790  Biso   1.000  C
  H17      1.0000 0.61340  0.25000  0.93710  Biso   1.000  H
  C22      1.0000 0.43970  0.25000  0.86490  Biso   1.000  C
  H18      1.0000 0.43280  0.25000  0.79680  Biso   1.000  H
  C23      1.0000 0.34070  0.25000  0.88170  Biso   1.000  C
  C24      1.0000 0.22080  0.25000  0.79580  Biso   1.000  C
  C25      1.0000 0.19260  0.25000  0.69070  Biso   1.000  C
  H19      1.0000 0.25110  0.25000  0.66860  Biso   1.000  H
  C26      1.0000 0.07640  0.25000  0.61650  Biso   1.000  C
  C27      1.0000 0.99340  0.25000  0.65400  Biso   1.000  C
  H20      1.0000 0.91500  0.25000  0.60750  Biso   1.000  H
  C28      1.0000 0.02720  0.25000  0.76070  Biso   1.000  C
  C29      1.0000 0.94180  0.25000  0.80740  Biso   1.000  C
  C30      1.0000 0.04230  0.25000  0.50010  Biso   1.000  C
  C31      1.0000 0.92590  0.25000  0.42820  Biso   1.000  C
  H21      1.0000 0.86940  0.25000  0.45260  Biso   1.000  H
  C32      1.0000 0.89270  0.25000  0.32220  Biso   1.000  C
  H22      1.0000 0.81420  0.25000  0.27570  Biso   1.000  H
  C33      1.0000 0.97670  0.25000  0.28310  Biso   1.000  C
  C34      1.0000 0.09190  0.25000  0.35440  Biso   1.000  C
  H23      1.0000 0.14880  0.25000  0.33030  Biso   1.000  H
  C35      1.0000 0.12440  0.25000  0.46150  Biso   1.000  C
  H24      1.0000 0.20280  0.25000  0.50810  Biso   1.000  H
  C36      1.0000 0.93840  0.25000  0.16810  Biso   1.000  C
