data_image0
_cell_length_a       21.8278
_cell_length_b       16.315
_cell_length_c       11.765
_cell_angle_alpha    90
_cell_angle_beta     92.967
_cell_angle_gamma    90

_symmetry_space_group_name_H-M    "P 1"
_symmetry_int_tables_number       1

loop_
  _symmetry_equiv_pos_as_xyz
  'x, y, z'

loop_
  _atom_site_label
  _atom_site_occupancy
  _atom_site_fract_x
  _atom_site_fract_y
  _atom_site_fract_z
  _atom_site_thermal_displace_type
  _atom_site_B_iso_or_equiv
  _atom_site_type_symbol
  Zn1      1.0000 0.74298  0.17333  0.13891  Biso   1.000  Zn
  N1       1.0000 0.75513  0.29216  0.09670  Biso   1.000  N
  N2       1.0000 0.80104  0.40775  0.06030  Biso   1.000  N
  N3       1.0000 0.75698  0.71300  0.44400  Biso   1.000  N
  N4       1.0000 0.66148  0.72750  0.49510  Biso   1.000  N
  N5       1.0000 0.72478  0.11012  0.99700  Biso   1.000  N
  N6       1.0000 0.67609  0.02585  0.87850  Biso   1.000  N
  N7       1.0000 0.59093  0.13650  0.32750  Biso   1.000  N
  N8       1.0000 0.67083  0.17479  0.23450  Biso   1.000  N
  N9       1.0000 0.82063  0.15239  0.22780  Biso   1.000  N
  N10      1.0000 0.91422  0.11760  0.28120  Biso   1.000  N
  C1       1.0000 0.80776  0.33310  0.10590  Biso   1.000  C
  H1       1.0000 0.84490  0.31220  0.14010  Biso   1.000  H
  C2       1.0000 0.71379  0.34430  0.04300  Biso   1.000  C
  H2       1.0000 0.67190  0.33190  0.02510  Biso   1.000  H
  C3       1.0000 0.74136  0.41580  0.01950  Biso   1.000  C
  H3       1.0000 0.72320  0.46220  0.98240  Biso   1.000  H
  C4       1.0000 0.84969  0.46980  0.05370  Biso   1.000  C
  H4       1.0000 0.84860  0.49330  0.97600  Biso   1.000  H
  H5       1.0000 0.89020  0.44330  0.06830  Biso   1.000  H
  C5       1.0000 0.84217  0.53800  0.13940  Biso   1.000  C
  C6       1.0000 0.80380  0.60400  0.11330  Biso   1.000  C
  H6       1.0000 0.78330  0.60750  0.04030  Biso   1.000  H
  C7       1.0000 0.79520  0.66500  0.19370  Biso   1.000  C
  H7       1.0000 0.76830  0.70940  0.17560  Biso   1.000  H
  C8       1.0000 0.82560  0.66150  0.29980  Biso   1.000  C
  C9       1.0000 0.86471  0.59630  0.32470  Biso   1.000  C
  H8       1.0000 0.88640  0.59370  0.39670  Biso   1.000  H
  C10      1.0000 0.87260  0.53440  0.24510  Biso   1.000  C
  H9       1.0000 0.89900  0.48950  0.26360  Biso   1.000  H
  C11      1.0000 0.81500  0.72700  0.38790  Biso   1.000  C
  H10      1.0000 0.84950  0.72680  0.44590  Biso   1.000  H
  H11      1.0000 0.81380  0.78140  0.35080  Biso   1.000  H
  C12      1.0000 0.70510  0.75860  0.43490  Biso   1.000  C
  H12      1.0000 0.70070  0.80710  0.39050  Biso   1.000  H
  C13      1.0000 0.68660  0.65850  0.54450  Biso   1.000  C
  H13      1.0000 0.66580  0.62260  0.59310  Biso   1.000  H
  C14      1.0000 0.74520  0.64860  0.51460  Biso   1.000  C
  H14      1.0000 0.77260  0.60580  0.53780  Biso   1.000  H
  C15      1.0000 0.67247  0.07190  0.97210  Biso   1.000  C
  H15      1.0000 0.63690  0.07650  0.01500  Biso   1.000  H
  C16      1.0000 0.76365  0.08650  0.91440  Biso   1.000  C
  H16      1.0000 0.80500  0.10390  0.91000  Biso   1.000  H
  C17      1.0000 0.73396  0.03490  0.84100  Biso   1.000  C
  H17      1.0000 0.75010  0.00990  0.77610  Biso   1.000  H
  C18      1.0000 0.62815  0.97100  0.82870  Biso   1.000  C
  H18      1.0000 0.59320  0.96940  0.87900  Biso   1.000  H
  H19      1.0000 0.64480  0.91480  0.82330  Biso   1.000  H
  C19      1.0000 0.60600  0.99990  0.71200  Biso   1.000  C
  C20      1.0000 0.62004  0.95520  0.61510  Biso   1.000  C
  H20      1.0000 0.64360  0.90640  0.62280  Biso   1.000  H
  C21      1.0000 0.59962  0.98210  0.50740  Biso   1.000  C
  H21      1.0000 0.60900  0.95100  0.44220  Biso   1.000  H
  C22      1.0000 0.56566  0.05390  0.49440  Biso   1.000  C
  C23      1.0000 0.55118  0.09760  0.59110  Biso   1.000  C
  H22      1.0000 0.52760  0.14640  0.58340  Biso   1.000  H
  C24      1.0000 0.57079  0.07050  0.69810  Biso   1.000  C
  H23      1.0000 0.56000  0.10070  0.76320  Biso   1.000  H
  C25      1.0000 0.54499  0.08340  0.37720  Biso   1.000  C
  H24      1.0000 0.53710  0.03540  0.32690  Biso   1.000  H
  H25      1.0000 0.50600  0.11400  0.38170  Biso   1.000  H
  C26      1.0000 0.63706  0.11180  0.26460  Biso   1.000  C
  H26      1.0000 0.64450  0.05640  0.24440  Biso   1.000  H
  C27      1.0000 0.64508  0.24340  0.28140  Biso   1.000  C
  H27      1.0000 0.65980  0.29790  0.27470  Biso   1.000  H
  C28      1.0000 0.59537  0.22050  0.33870  Biso   1.000  C
  H28      1.0000 0.56900  0.25540  0.37850  Biso   1.000  H
  C29      1.0000 0.86791  0.10620  0.20520  Biso   1.000  C
  H29      1.0000 0.86880  0.06960  0.14260  Biso   1.000  H
  C30      1.0000 0.83865  0.19530  0.32510  Biso   1.000  C
  H30      1.0000 0.81420  0.23410  0.36240  Biso   1.000  H
  C31      1.0000 0.89566  0.17380  0.35850  Biso   1.000  C
  H31      1.0000 0.91890  0.19370  0.42320  Biso   1.000  H
  C32      1.0000 0.97508  0.07860  0.28180  Biso   1.000  C
  H32      1.0000 0.00670  0.12060  0.26850  Biso   1.000  H
  H33      1.0000 0.97580  0.03770  0.21980  Biso   1.000  H
  C33      1.0000 0.02202  0.07760  0.48050  Biso   1.000  C
  H34      1.0000 0.03740  0.13110  0.46760  Biso   1.000  H
  C34      1.0000 0.98921  0.03720  0.39500  Biso   1.000  C
  C35      1.0000 0.96720  0.95950  0.41440  Biso   1.000  C
  H35      1.0000 0.94450  0.93120  0.35540  Biso   1.000  H
  Zn2      1.0000 0.25702  0.82667  0.86109  Biso   1.000  Zn
  N11      1.0000 0.24487  0.70784  0.90330  Biso   1.000  N
  N12      1.0000 0.19896  0.59225  0.93970  Biso   1.000  N
  N13      1.0000 0.24302  0.28700  0.55600  Biso   1.000  N
  N14      1.0000 0.33852  0.27250  0.50490  Biso   1.000  N
  N15      1.0000 0.27522  0.88988  0.00300  Biso   1.000  N
  N16      1.0000 0.32391  0.97415  0.12150  Biso   1.000  N
  N17      1.0000 0.40907  0.86350  0.67250  Biso   1.000  N
  N18      1.0000 0.32917  0.82521  0.76550  Biso   1.000  N
  N19      1.0000 0.17937  0.84761  0.77220  Biso   1.000  N
  N20      1.0000 0.08578  0.88240  0.71880  Biso   1.000  N
  C36      1.0000 0.19224  0.66690  0.89410  Biso   1.000  C
  H36      1.0000 0.15510  0.68780  0.85990  Biso   1.000  H
  C37      1.0000 0.28621  0.65570  0.95700  Biso   1.000  C
  H37      1.0000 0.32810  0.66810  0.97490  Biso   1.000  H
  C38      1.0000 0.25864  0.58420  0.98050  Biso   1.000  C
  H38      1.0000 0.27680  0.53780  0.01760  Biso   1.000  H
  C39      1.0000 0.15031  0.53020  0.94630  Biso   1.000  C
  H39      1.0000 0.15140  0.50670  0.02400  Biso   1.000  H
  H40      1.0000 0.10980  0.55670  0.93170  Biso   1.000  H
  C40      1.0000 0.15783  0.46200  0.86060  Biso   1.000  C
  C41      1.0000 0.19620  0.39600  0.88670  Biso   1.000  C
  H41      1.0000 0.21670  0.39250  0.95970  Biso   1.000  H
  C42      1.0000 0.20480  0.33500  0.80630  Biso   1.000  C
  H42      1.0000 0.23170  0.29060  0.82440  Biso   1.000  H
  C43      1.0000 0.17440  0.33850  0.70020  Biso   1.000  C
  C44      1.0000 0.13529  0.40370  0.67530  Biso   1.000  C
  H43      1.0000 0.11360  0.40630  0.60330  Biso   1.000  H
  C45      1.0000 0.12740  0.46560  0.75490  Biso   1.000  C
  H44      1.0000 0.10100  0.51050  0.73640  Biso   1.000  H
  C46      1.0000 0.18500  0.27300  0.61210  Biso   1.000  C
  H45      1.0000 0.15050  0.27320  0.55410  Biso   1.000  H
  H46      1.0000 0.18620  0.21860  0.64920  Biso   1.000  H
  C47      1.0000 0.29490  0.24140  0.56510  Biso   1.000  C
  H47      1.0000 0.29930  0.19290  0.60950  Biso   1.000  H
  C48      1.0000 0.31340  0.34150  0.45550  Biso   1.000  C
  H48      1.0000 0.33420  0.37740  0.40690  Biso   1.000  H
  C49      1.0000 0.25480  0.35140  0.48540  Biso   1.000  C
  H49      1.0000 0.22740  0.39420  0.46220  Biso   1.000  H
  C50      1.0000 0.32753  0.92810  0.02790  Biso   1.000  C
  H50      1.0000 0.36310  0.92350  0.98500  Biso   1.000  H
  C51      1.0000 0.23635  0.91350  0.08560  Biso   1.000  C
  H51      1.0000 0.19500  0.89610  0.09000  Biso   1.000  H
  C52      1.0000 0.26604  0.96510  0.15900  Biso   1.000  C
  H52      1.0000 0.24990  0.99010  0.22390  Biso   1.000  H
  C53      1.0000 0.37185  0.02900  0.17130  Biso   1.000  C
  H53      1.0000 0.40680  0.03060  0.12100  Biso   1.000  H
  H54      1.0000 0.35520  0.08520  0.17670  Biso   1.000  H
  C54      1.0000 0.39400  0.00010  0.28800  Biso   1.000  C
  C55      1.0000 0.37996  0.04480  0.38490  Biso   1.000  C
  H55      1.0000 0.35640  0.09360  0.37720  Biso   1.000  H
  C56      1.0000 0.40038  0.01790  0.49260  Biso   1.000  C
  H56      1.0000 0.39100  0.04900  0.55780  Biso   1.000  H
  C57      1.0000 0.43434  0.94610  0.50560  Biso   1.000  C
  C58      1.0000 0.44882  0.90240  0.40890  Biso   1.000  C
  H57      1.0000 0.47240  0.85360  0.41660  Biso   1.000  H
  C59      1.0000 0.42921  0.92950  0.30190  Biso   1.000  C
  H58      1.0000 0.44000  0.89930  0.23680  Biso   1.000  H
  C60      1.0000 0.45501  0.91660  0.62280  Biso   1.000  C
  H59      1.0000 0.46290  0.96460  0.67310  Biso   1.000  H
  H60      1.0000 0.49400  0.88600  0.61830  Biso   1.000  H
  C61      1.0000 0.36294  0.88820  0.73540  Biso   1.000  C
  H61      1.0000 0.35550  0.94360  0.75560  Biso   1.000  H
  C62      1.0000 0.35492  0.75660  0.71860  Biso   1.000  C
  H62      1.0000 0.34020  0.70210  0.72530  Biso   1.000  H
  C63      1.0000 0.40463  0.77950  0.66130  Biso   1.000  C
  H63      1.0000 0.43100  0.74460  0.62150  Biso   1.000  H
  C64      1.0000 0.13209  0.89380  0.79480  Biso   1.000  C
  H64      1.0000 0.13120  0.93040  0.85740  Biso   1.000  H
  C65      1.0000 0.16135  0.80470  0.67490  Biso   1.000  C
  H65      1.0000 0.18580  0.76590  0.63760  Biso   1.000  H
  C66      1.0000 0.10434  0.82620  0.64150  Biso   1.000  C
  H66      1.0000 0.08110  0.80630  0.57680  Biso   1.000  H
  C67      1.0000 0.02492  0.92140  0.71820  Biso   1.000  C
  H67      1.0000 0.99330  0.87940  0.73150  Biso   1.000  H
  H68      1.0000 0.02420  0.96230  0.78020  Biso   1.000  H
  C68      1.0000 0.97798  0.92240  0.51950  Biso   1.000  C
  H69      1.0000 0.96260  0.86890  0.53240  Biso   1.000  H
  C69      1.0000 0.01079  0.96280  0.60500  Biso   1.000  C
  C70      1.0000 0.03280  0.04050  0.58560  Biso   1.000  C
  H70      1.0000 0.05550  0.06880  0.64460  Biso   1.000  H
  Zn3      1.0000 0.25702  0.67333  0.36109  Biso   1.000  Zn
  N21      1.0000 0.24487  0.79216  0.40330  Biso   1.000  N
  N22      1.0000 0.19896  0.90775  0.43970  Biso   1.000  N
  N23      1.0000 0.24302  0.21300  0.05600  Biso   1.000  N
  N24      1.0000 0.33852  0.22750  0.00490  Biso   1.000  N
  N25      1.0000 0.27522  0.61012  0.50300  Biso   1.000  N
  N26      1.0000 0.32391  0.52585  0.62150  Biso   1.000  N
  N27      1.0000 0.40907  0.63650  0.17250  Biso   1.000  N
  N28      1.0000 0.32917  0.67479  0.26550  Biso   1.000  N
  N29      1.0000 0.17937  0.65239  0.27220  Biso   1.000  N
  N30      1.0000 0.08578  0.61760  0.21880  Biso   1.000  N
  C71      1.0000 0.19224  0.83310  0.39410  Biso   1.000  C
  H71      1.0000 0.15510  0.81220  0.35990  Biso   1.000  H
  C72      1.0000 0.28621  0.84430  0.45700  Biso   1.000  C
  H72      1.0000 0.32810  0.83190  0.47490  Biso   1.000  H
  C73      1.0000 0.25864  0.91580  0.48050  Biso   1.000  C
  H73      1.0000 0.27680  0.96220  0.51760  Biso   1.000  H
  C74      1.0000 0.15031  0.96980  0.44630  Biso   1.000  C
  H74      1.0000 0.15140  0.99330  0.52400  Biso   1.000  H
  H75      1.0000 0.10980  0.94330  0.43170  Biso   1.000  H
  C75      1.0000 0.15783  0.03800  0.36060  Biso   1.000  C
  C76      1.0000 0.19620  0.10400  0.38670  Biso   1.000  C
  H76      1.0000 0.21670  0.10750  0.45970  Biso   1.000  H
  C77      1.0000 0.20480  0.16500  0.30630  Biso   1.000  C
  H77      1.0000 0.23170  0.20940  0.32440  Biso   1.000  H
  C78      1.0000 0.17440  0.16150  0.20020  Biso   1.000  C
  C79      1.0000 0.13529  0.09630  0.17530  Biso   1.000  C
  H78      1.0000 0.11360  0.09370  0.10330  Biso   1.000  H
  C80      1.0000 0.12740  0.03440  0.25490  Biso   1.000  C
  H79      1.0000 0.10100  0.98950  0.23640  Biso   1.000  H
  C81      1.0000 0.18500  0.22700  0.11210  Biso   1.000  C
  H80      1.0000 0.15050  0.22680  0.05410  Biso   1.000  H
  H81      1.0000 0.18620  0.28140  0.14920  Biso   1.000  H
  C82      1.0000 0.29490  0.25860  0.06510  Biso   1.000  C
  H82      1.0000 0.29930  0.30710  0.10950  Biso   1.000  H
  C83      1.0000 0.31340  0.15850  0.95550  Biso   1.000  C
  H83      1.0000 0.33420  0.12260  0.90690  Biso   1.000  H
  C84      1.0000 0.25480  0.14860  0.98540  Biso   1.000  C
  H84      1.0000 0.22740  0.10580  0.96220  Biso   1.000  H
  C85      1.0000 0.32753  0.57190  0.52790  Biso   1.000  C
  H85      1.0000 0.36310  0.57650  0.48500  Biso   1.000  H
  C86      1.0000 0.23635  0.58650  0.58560  Biso   1.000  C
  H86      1.0000 0.19500  0.60390  0.59000  Biso   1.000  H
  C87      1.0000 0.26604  0.53490  0.65900  Biso   1.000  C
  H87      1.0000 0.24990  0.50990  0.72390  Biso   1.000  H
  C88      1.0000 0.37185  0.47100  0.67130  Biso   1.000  C
  H88      1.0000 0.40680  0.46940  0.62100  Biso   1.000  H
  H89      1.0000 0.35520  0.41480  0.67670  Biso   1.000  H
  C89      1.0000 0.39400  0.49990  0.78800  Biso   1.000  C
  C90      1.0000 0.37996  0.45520  0.88490  Biso   1.000  C
  H90      1.0000 0.35640  0.40640  0.87720  Biso   1.000  H
  C91      1.0000 0.40038  0.48210  0.99260  Biso   1.000  C
  H91      1.0000 0.39100  0.45100  0.05780  Biso   1.000  H
  C92      1.0000 0.43434  0.55390  0.00560  Biso   1.000  C
  C93      1.0000 0.44882  0.59760  0.90890  Biso   1.000  C
  H92      1.0000 0.47240  0.64640  0.91660  Biso   1.000  H
  C94      1.0000 0.42921  0.57050  0.80190  Biso   1.000  C
  H93      1.0000 0.44000  0.60070  0.73680  Biso   1.000  H
  C95      1.0000 0.45501  0.58340  0.12280  Biso   1.000  C
  H94      1.0000 0.46290  0.53540  0.17310  Biso   1.000  H
  H95      1.0000 0.49400  0.61400  0.11830  Biso   1.000  H
  C96      1.0000 0.36294  0.61180  0.23540  Biso   1.000  C
  H96      1.0000 0.35550  0.55640  0.25560  Biso   1.000  H
  C97      1.0000 0.35492  0.74340  0.21860  Biso   1.000  C
  H97      1.0000 0.34020  0.79790  0.22530  Biso   1.000  H
  C98      1.0000 0.40463  0.72050  0.16130  Biso   1.000  C
  H98      1.0000 0.43100  0.75540  0.12150  Biso   1.000  H
  C99      1.0000 0.13209  0.60620  0.29480  Biso   1.000  C
  H99      1.0000 0.13120  0.56960  0.35740  Biso   1.000  H
  C100     1.0000 0.16135  0.69530  0.17490  Biso   1.000  C
  H100     1.0000 0.18580  0.73410  0.13760  Biso   1.000  H
  C101     1.0000 0.10434  0.67380  0.14150  Biso   1.000  C
  H101     1.0000 0.08110  0.69370  0.07680  Biso   1.000  H
  C102     1.0000 0.02492  0.57860  0.21820  Biso   1.000  C
  H102     1.0000 0.99330  0.62060  0.23150  Biso   1.000  H
  H103     1.0000 0.02420  0.53770  0.28020  Biso   1.000  H
  C103     1.0000 0.97798  0.57760  0.01950  Biso   1.000  C
  H104     1.0000 0.96260  0.63110  0.03240  Biso   1.000  H
  C104     1.0000 0.01079  0.53720  0.10500  Biso   1.000  C
  C105     1.0000 0.03280  0.45950  0.08560  Biso   1.000  C
  H105     1.0000 0.05550  0.43120  0.14460  Biso   1.000  H
  Zn4      1.0000 0.74298  0.32667  0.63891  Biso   1.000  Zn
  N31      1.0000 0.75513  0.20784  0.59670  Biso   1.000  N
  N32      1.0000 0.80104  0.09225  0.56030  Biso   1.000  N
  N33      1.0000 0.75698  0.78700  0.94400  Biso   1.000  N
  N34      1.0000 0.66148  0.77250  0.99510  Biso   1.000  N
  N35      1.0000 0.72478  0.38988  0.49700  Biso   1.000  N
  N36      1.0000 0.67609  0.47415  0.37850  Biso   1.000  N
  N37      1.0000 0.59093  0.36350  0.82750  Biso   1.000  N
  N38      1.0000 0.67083  0.32521  0.73450  Biso   1.000  N
  N39      1.0000 0.82063  0.34761  0.72780  Biso   1.000  N
  N40      1.0000 0.91422  0.38240  0.78120  Biso   1.000  N
  C106     1.0000 0.80776  0.16690  0.60590  Biso   1.000  C
  H106     1.0000 0.84490  0.18780  0.64010  Biso   1.000  H
  C107     1.0000 0.71379  0.15570  0.54300  Biso   1.000  C
  H107     1.0000 0.67190  0.16810  0.52510  Biso   1.000  H
  C108     1.0000 0.74136  0.08420  0.51950  Biso   1.000  C
  H108     1.0000 0.72320  0.03780  0.48240  Biso   1.000  H
  C109     1.0000 0.84969  0.03020  0.55370  Biso   1.000  C
  H109     1.0000 0.84860  0.00670  0.47600  Biso   1.000  H
  H110     1.0000 0.89020  0.05670  0.56830  Biso   1.000  H
  C110     1.0000 0.84217  0.96200  0.63940  Biso   1.000  C
  C111     1.0000 0.80380  0.89600  0.61330  Biso   1.000  C
  H111     1.0000 0.78330  0.89250  0.54030  Biso   1.000  H
  C112     1.0000 0.79520  0.83500  0.69370  Biso   1.000  C
  H112     1.0000 0.76830  0.79060  0.67560  Biso   1.000  H
  C113     1.0000 0.82560  0.83850  0.79980  Biso   1.000  C
  C114     1.0000 0.86471  0.90370  0.82470  Biso   1.000  C
  H113     1.0000 0.88640  0.90630  0.89670  Biso   1.000  H
  C115     1.0000 0.87260  0.96560  0.74510  Biso   1.000  C
  H114     1.0000 0.89900  0.01050  0.76360  Biso   1.000  H
  C116     1.0000 0.81500  0.77300  0.88790  Biso   1.000  C
  H115     1.0000 0.84950  0.77320  0.94590  Biso   1.000  H
  H116     1.0000 0.81380  0.71860  0.85080  Biso   1.000  H
  C117     1.0000 0.70510  0.74140  0.93490  Biso   1.000  C
  H117     1.0000 0.70070  0.69290  0.89050  Biso   1.000  H
  C118     1.0000 0.68660  0.84150  0.04450  Biso   1.000  C
  H118     1.0000 0.66580  0.87740  0.09310  Biso   1.000  H
  C119     1.0000 0.74520  0.85140  0.01460  Biso   1.000  C
  H119     1.0000 0.77260  0.89420  0.03780  Biso   1.000  H
  C120     1.0000 0.67247  0.42810  0.47210  Biso   1.000  C
  H120     1.0000 0.63690  0.42350  0.51500  Biso   1.000  H
  C121     1.0000 0.76365  0.41350  0.41440  Biso   1.000  C
  H121     1.0000 0.80500  0.39610  0.41000  Biso   1.000  H
  C122     1.0000 0.73396  0.46510  0.34100  Biso   1.000  C
  H122     1.0000 0.75010  0.49010  0.27610  Biso   1.000  H
  C123     1.0000 0.62815  0.52900  0.32870  Biso   1.000  C
  H123     1.0000 0.59320  0.53060  0.37900  Biso   1.000  H
  H124     1.0000 0.64480  0.58520  0.32330  Biso   1.000  H
  C124     1.0000 0.60600  0.50010  0.21200  Biso   1.000  C
  C125     1.0000 0.62004  0.54480  0.11510  Biso   1.000  C
  H125     1.0000 0.64360  0.59360  0.12280  Biso   1.000  H
  C126     1.0000 0.59962  0.51790  0.00740  Biso   1.000  C
  H126     1.0000 0.60900  0.54900  0.94220  Biso   1.000  H
  C127     1.0000 0.56566  0.44610  0.99440  Biso   1.000  C
  C128     1.0000 0.55118  0.40240  0.09110  Biso   1.000  C
  H127     1.0000 0.52760  0.35360  0.08340  Biso   1.000  H
  C129     1.0000 0.57079  0.42950  0.19810  Biso   1.000  C
  H128     1.0000 0.56000  0.39930  0.26320  Biso   1.000  H
  C130     1.0000 0.54499  0.41660  0.87720  Biso   1.000  C
  H129     1.0000 0.53710  0.46460  0.82690  Biso   1.000  H
  H130     1.0000 0.50600  0.38600  0.88170  Biso   1.000  H
  C131     1.0000 0.63706  0.38820  0.76460  Biso   1.000  C
  H131     1.0000 0.64450  0.44360  0.74440  Biso   1.000  H
  C132     1.0000 0.64508  0.25660  0.78140  Biso   1.000  C
  H132     1.0000 0.65980  0.20210  0.77470  Biso   1.000  H
  C133     1.0000 0.59537  0.27950  0.83870  Biso   1.000  C
  H133     1.0000 0.56900  0.24460  0.87850  Biso   1.000  H
  C134     1.0000 0.86791  0.39380  0.70520  Biso   1.000  C
  H134     1.0000 0.86880  0.43040  0.64260  Biso   1.000  H
  C135     1.0000 0.83865  0.30470  0.82510  Biso   1.000  C
  H135     1.0000 0.81420  0.26590  0.86240  Biso   1.000  H
  C136     1.0000 0.89566  0.32620  0.85850  Biso   1.000  C
  H136     1.0000 0.91890  0.30630  0.92320  Biso   1.000  H
  C137     1.0000 0.97508  0.42140  0.78180  Biso   1.000  C
  H137     1.0000 0.00670  0.37940  0.76850  Biso   1.000  H
  H138     1.0000 0.97580  0.46230  0.71980  Biso   1.000  H
  C138     1.0000 0.02202  0.42240  0.98050  Biso   1.000  C
  H139     1.0000 0.03740  0.36890  0.96760  Biso   1.000  H
  C139     1.0000 0.98921  0.46280  0.89500  Biso   1.000  C
  C140     1.0000 0.96720  0.54050  0.91440  Biso   1.000  C
  H140     1.0000 0.94450  0.56880  0.85540  Biso   1.000  H
