data_image0
_cell_length_a       11.8319
_cell_length_b       19.558
_cell_length_c       7.4351
_cell_angle_alpha    90
_cell_angle_beta     90
_cell_angle_gamma    90

_symmetry_space_group_name_H-M    "P 1"
_symmetry_int_tables_number       1

loop_
  _symmetry_equiv_pos_as_xyz
  'x, y, z'

loop_
  _atom_site_label
  _atom_site_occupancy
  _atom_site_fract_x
  _atom_site_fract_y
  _atom_site_fract_z
  _atom_site_thermal_displace_type
  _atom_site_B_iso_or_equiv
  _atom_site_type_symbol
  O1       1.0000 0.13340  0.29030  0.31320  Biso   1.000  O
  N1       1.0000 0.26430  0.31370  0.09120  Biso   1.000  N
  H1       1.0000 0.32210  0.31790  0.16030  Biso   1.000  H
  C1       1.0000 0.16420  0.30630  0.13880  Biso   1.000  C
  O2       1.0000 0.63340  0.79030  0.31320  Biso   1.000  O
  N2       1.0000 0.76430  0.81370  0.09120  Biso   1.000  N
  H2       1.0000 0.82210  0.81790  0.16030  Biso   1.000  H
  C2       1.0000 0.66420  0.80630  0.13880  Biso   1.000  C
  O3       1.0000 0.86660  0.70970  0.31320  Biso   1.000  O
  N3       1.0000 0.73570  0.68630  0.09120  Biso   1.000  N
  H3       1.0000 0.67790  0.68210  0.16030  Biso   1.000  H
  C3       1.0000 0.83580  0.69370  0.13880  Biso   1.000  C
  O4       1.0000 0.36660  0.20970  0.31320  Biso   1.000  O
  N4       1.0000 0.23570  0.18630  0.09120  Biso   1.000  N
  H4       1.0000 0.17790  0.18210  0.16030  Biso   1.000  H
  C4       1.0000 0.33580  0.19370  0.13880  Biso   1.000  C
  O5       1.0000 0.86660  0.70970  0.68680  Biso   1.000  O
  N5       1.0000 0.73570  0.68630  0.90880  Biso   1.000  N
  H5       1.0000 0.67790  0.68210  0.83970  Biso   1.000  H
  C5       1.0000 0.83580  0.69370  0.86120  Biso   1.000  C
  O6       1.0000 0.36660  0.20970  0.68680  Biso   1.000  O
  N6       1.0000 0.23570  0.18630  0.90880  Biso   1.000  N
  H6       1.0000 0.17790  0.18210  0.83970  Biso   1.000  H
  C6       1.0000 0.33580  0.19370  0.86120  Biso   1.000  C
  O7       1.0000 0.13340  0.29030  0.68680  Biso   1.000  O
  N7       1.0000 0.26430  0.31370  0.90880  Biso   1.000  N
  H7       1.0000 0.32210  0.31790  0.83970  Biso   1.000  H
  C7       1.0000 0.16420  0.30630  0.86120  Biso   1.000  C
  O8       1.0000 0.63340  0.79030  0.68680  Biso   1.000  O
  N8       1.0000 0.76430  0.81370  0.90880  Biso   1.000  N
  H8       1.0000 0.82210  0.81790  0.83970  Biso   1.000  H
  C8       1.0000 0.66420  0.80630  0.86120  Biso   1.000  C
  Co1      1.0000 0.25000  0.25000  0.50000  Biso   1.000  Co
  Co2      1.0000 0.75000  0.75000  0.50000  Biso   1.000  Co
  N9       1.0000 0.15520  0.15550  0.50000  Biso   1.000  N
  C9       1.0000 0.03340  0.03260  0.50000  Biso   1.000  C
  C10      1.0000 0.98080  0.09530  0.50000  Biso   1.000  C
  H9       1.0000 0.90230  0.09750  0.50000  Biso   1.000  H
  C11      1.0000 0.20550  0.09580  0.50000  Biso   1.000  C
  H10      1.0000 0.28400  0.09480  0.50000  Biso   1.000  H
  C12      1.0000 0.04260  0.15440  0.50000  Biso   1.000  C
  H11      1.0000 0.00410  0.19590  0.50000  Biso   1.000  H
  C13      1.0000 0.14810  0.03480  0.50000  Biso   1.000  C
  H12      1.0000 0.18870  0.99400  0.50000  Biso   1.000  H
  N10      1.0000 0.65520  0.65550  0.50000  Biso   1.000  N
  C14      1.0000 0.53340  0.53260  0.50000  Biso   1.000  C
  C15      1.0000 0.48080  0.59530  0.50000  Biso   1.000  C
  H13      1.0000 0.40230  0.59750  0.50000  Biso   1.000  H
  C16      1.0000 0.70550  0.59580  0.50000  Biso   1.000  C
  H14      1.0000 0.78400  0.59480  0.50000  Biso   1.000  H
  C17      1.0000 0.54260  0.65440  0.50000  Biso   1.000  C
  H15      1.0000 0.50410  0.69590  0.50000  Biso   1.000  H
  C18      1.0000 0.64810  0.53480  0.50000  Biso   1.000  C
  H16      1.0000 0.68870  0.49400  0.50000  Biso   1.000  H
  N11      1.0000 0.84480  0.84450  0.50000  Biso   1.000  N
  C19      1.0000 0.96660  0.96740  0.50000  Biso   1.000  C
  C20      1.0000 0.01920  0.90470  0.50000  Biso   1.000  C
  H17      1.0000 0.09770  0.90250  0.50000  Biso   1.000  H
  C21      1.0000 0.79450  0.90420  0.50000  Biso   1.000  C
  H18      1.0000 0.71600  0.90520  0.50000  Biso   1.000  H
  C22      1.0000 0.95740  0.84560  0.50000  Biso   1.000  C
  H19      1.0000 0.99590  0.80410  0.50000  Biso   1.000  H
  C23      1.0000 0.85190  0.96520  0.50000  Biso   1.000  C
  H20      1.0000 0.81130  0.00600  0.50000  Biso   1.000  H
  N12      1.0000 0.34480  0.34450  0.50000  Biso   1.000  N
  C24      1.0000 0.46660  0.46740  0.50000  Biso   1.000  C
  C25      1.0000 0.51920  0.40470  0.50000  Biso   1.000  C
  H21      1.0000 0.59770  0.40250  0.50000  Biso   1.000  H
  C26      1.0000 0.29450  0.40420  0.50000  Biso   1.000  C
  H22      1.0000 0.21600  0.40520  0.50000  Biso   1.000  H
  C27      1.0000 0.45740  0.34560  0.50000  Biso   1.000  C
  H23      1.0000 0.49590  0.30410  0.50000  Biso   1.000  H
  C28      1.0000 0.35190  0.46520  0.50000  Biso   1.000  C
  H24      1.0000 0.31130  0.50600  0.50000  Biso   1.000  H
  N13      1.0000 0.08690  0.31920  0.00000  Biso   1.000  N
  N14      1.0000 0.58690  0.81920  0.00000  Biso   1.000  N
  N15      1.0000 0.91310  0.68080  0.00000  Biso   1.000  N
  N16      1.0000 0.41310  0.18080  0.00000  Biso   1.000  N
  O9       1.0000 0.86660  0.29030  0.18680  Biso   1.000  O
  N17      1.0000 0.73570  0.31370  0.40880  Biso   1.000  N
  H25      1.0000 0.67790  0.31790  0.33970  Biso   1.000  H
  C29      1.0000 0.83580  0.30630  0.36120  Biso   1.000  C
  O10      1.0000 0.36660  0.79030  0.18680  Biso   1.000  O
  N18      1.0000 0.23570  0.81370  0.40880  Biso   1.000  N
  H26      1.0000 0.17790  0.81790  0.33970  Biso   1.000  H
  C30      1.0000 0.33580  0.80630  0.36120  Biso   1.000  C
  O11      1.0000 0.13340  0.70970  0.18680  Biso   1.000  O
  N19      1.0000 0.26430  0.68630  0.40880  Biso   1.000  N
  H27      1.0000 0.32210  0.68210  0.33970  Biso   1.000  H
  C31      1.0000 0.16420  0.69370  0.36120  Biso   1.000  C
  O12      1.0000 0.63340  0.20970  0.18680  Biso   1.000  O
  N20      1.0000 0.76430  0.18630  0.40880  Biso   1.000  N
  H28      1.0000 0.82210  0.18210  0.33970  Biso   1.000  H
  C32      1.0000 0.66420  0.19370  0.36120  Biso   1.000  C
  O13      1.0000 0.13340  0.70970  0.81320  Biso   1.000  O
  N21      1.0000 0.26430  0.68630  0.59120  Biso   1.000  N
  H29      1.0000 0.32210  0.68210  0.66030  Biso   1.000  H
  C33      1.0000 0.16420  0.69370  0.63880  Biso   1.000  C
  O14      1.0000 0.63340  0.20970  0.81320  Biso   1.000  O
  N22      1.0000 0.76430  0.18630  0.59120  Biso   1.000  N
  H30      1.0000 0.82210  0.18210  0.66030  Biso   1.000  H
  C34      1.0000 0.66420  0.19370  0.63880  Biso   1.000  C
  O15      1.0000 0.86660  0.29030  0.81320  Biso   1.000  O
  N23      1.0000 0.73570  0.31370  0.59120  Biso   1.000  N
  H31      1.0000 0.67790  0.31790  0.66030  Biso   1.000  H
  C35      1.0000 0.83580  0.30630  0.63880  Biso   1.000  C
  O16      1.0000 0.36660  0.79030  0.81320  Biso   1.000  O
  N24      1.0000 0.23570  0.81370  0.59120  Biso   1.000  N
  H32      1.0000 0.17790  0.81790  0.66030  Biso   1.000  H
  C36      1.0000 0.33580  0.80630  0.63880  Biso   1.000  C
  Co3      1.0000 0.75000  0.25000  0.00000  Biso   1.000  Co
  Co4      1.0000 0.25000  0.75000  0.00000  Biso   1.000  Co
  N25      1.0000 0.84480  0.15550  0.00000  Biso   1.000  N
  C37      1.0000 0.96660  0.03260  0.00000  Biso   1.000  C
  C38      1.0000 0.01920  0.09530  0.00000  Biso   1.000  C
  H33      1.0000 0.09770  0.09750  0.00000  Biso   1.000  H
  C39      1.0000 0.79450  0.09580  0.00000  Biso   1.000  C
  H34      1.0000 0.71600  0.09480  0.00000  Biso   1.000  H
  C40      1.0000 0.95740  0.15440  0.00000  Biso   1.000  C
  H35      1.0000 0.99590  0.19590  0.00000  Biso   1.000  H
  C41      1.0000 0.85190  0.03480  0.00000  Biso   1.000  C
  H36      1.0000 0.81130  0.99400  0.00000  Biso   1.000  H
  N26      1.0000 0.34480  0.65550  0.00000  Biso   1.000  N
  C42      1.0000 0.46660  0.53260  0.00000  Biso   1.000  C
  C43      1.0000 0.51920  0.59530  0.00000  Biso   1.000  C
  H37      1.0000 0.59770  0.59750  0.00000  Biso   1.000  H
  C44      1.0000 0.29450  0.59580  0.00000  Biso   1.000  C
  H38      1.0000 0.21600  0.59480  0.00000  Biso   1.000  H
  C45      1.0000 0.45740  0.65440  0.00000  Biso   1.000  C
  H39      1.0000 0.49590  0.69590  0.00000  Biso   1.000  H
  C46      1.0000 0.35190  0.53480  0.00000  Biso   1.000  C
  H40      1.0000 0.31130  0.49400  0.00000  Biso   1.000  H
  N27      1.0000 0.15520  0.84450  0.00000  Biso   1.000  N
  C47      1.0000 0.03340  0.96740  0.00000  Biso   1.000  C
  C48      1.0000 0.98080  0.90470  0.00000  Biso   1.000  C
  H41      1.0000 0.90230  0.90250  0.00000  Biso   1.000  H
  C49      1.0000 0.20550  0.90420  0.00000  Biso   1.000  C
  H42      1.0000 0.28400  0.90520  0.00000  Biso   1.000  H
  C50      1.0000 0.04260  0.84560  0.00000  Biso   1.000  C
  H43      1.0000 0.00410  0.80410  0.00000  Biso   1.000  H
  C51      1.0000 0.14810  0.96520  0.00000  Biso   1.000  C
  H44      1.0000 0.18870  0.00600  0.00000  Biso   1.000  H
  N28      1.0000 0.65520  0.34450  0.00000  Biso   1.000  N
  C52      1.0000 0.53340  0.46740  0.00000  Biso   1.000  C
  C53      1.0000 0.48080  0.40470  0.00000  Biso   1.000  C
  H45      1.0000 0.40230  0.40250  0.00000  Biso   1.000  H
  C54      1.0000 0.70550  0.40420  0.00000  Biso   1.000  C
  H46      1.0000 0.78400  0.40520  0.00000  Biso   1.000  H
  C55      1.0000 0.54260  0.34560  0.00000  Biso   1.000  C
  H47      1.0000 0.50410  0.30410  0.00000  Biso   1.000  H
  C56      1.0000 0.64810  0.46520  0.00000  Biso   1.000  C
  H48      1.0000 0.68870  0.50600  0.00000  Biso   1.000  H
  N29      1.0000 0.91310  0.31920  0.50000  Biso   1.000  N
  N30      1.0000 0.41310  0.81920  0.50000  Biso   1.000  N
  N31      1.0000 0.08690  0.68080  0.50000  Biso   1.000  N
  N32      1.0000 0.58690  0.18080  0.50000  Biso   1.000  N
