data_image0
_cell_length_a       33.07
_cell_length_b       10.122
_cell_length_c       21.692
_cell_angle_alpha    90
_cell_angle_beta     98.4
_cell_angle_gamma    90

_symmetry_space_group_name_H-M    "P 1"
_symmetry_int_tables_number       1

loop_
  _symmetry_equiv_pos_as_xyz
  'x, y, z'

loop_
  _atom_site_label
  _atom_site_occupancy
  _atom_site_fract_x
  _atom_site_fract_y
  _atom_site_fract_z
  _atom_site_thermal_displace_type
  _atom_site_B_iso_or_equiv
  _atom_site_type_symbol
  Cd1      1.0000 0.25877  0.22218  0.35390  Biso   1.000  Cd
  C1       1.0000 0.15940  0.15350  0.37240  Biso   1.000  C
  H1       1.0000 0.15510  0.11210  0.33370  Biso   1.000  H
  C2       1.0000 0.18840  0.26000  0.44770  Biso   1.000  C
  H2       1.0000 0.20710  0.30750  0.47530  Biso   1.000  H
  C3       1.0000 0.13250  0.24190  0.51510  Biso   1.000  C
  H3       1.0000 0.15170  0.28780  0.54570  Biso   1.000  H
  H4       1.0000 0.12800  0.15480  0.53140  Biso   1.000  H
  C4       1.0000 0.09290  0.31570  0.50610  Biso   1.000  C
  C5       1.0000 0.08830  0.43870  0.47910  Biso   1.000  C
  H5       1.0000 0.10990  0.47630  0.46220  Biso   1.000  H
  C6       1.0000 0.05080  0.50910  0.47690  Biso   1.000  C
  H6       1.0000 0.04820  0.59060  0.45680  Biso   1.000  H
  C7       1.0000 0.06140  0.27510  0.53400  Biso   1.000  C
  H7       1.0000 0.06420  0.19750  0.55720  Biso   1.000  H
  C8       1.0000 0.02480  0.34470  0.52940  Biso   1.000  C
  H8       1.0000 0.00320  0.30680  0.54610  Biso   1.000  H
  C9       1.0000 0.01910  0.46290  0.50240  Biso   1.000  C
  C10      1.0000 0.01990  0.41130  0.23550  Biso   1.000  C
  C11      1.0000 0.05640  0.41780  0.27250  Biso   1.000  C
  H9       1.0000 0.05650  0.42600  0.31520  Biso   1.000  H
  C12      1.0000 0.02290  0.39900  0.17900  Biso   1.000  C
  H10      1.0000 0.99890  0.38490  0.15150  Biso   1.000  H
  C13      1.0000 0.05860  0.40400  0.15450  Biso   1.000  C
  H11      1.0000 0.05780  0.40980  0.11160  Biso   1.000  H
  C14      1.0000 0.09300  0.41320  0.25120  Biso   1.000  C
  H12      1.0000 0.11710  0.41790  0.27910  Biso   1.000  H
  C15      1.0000 0.09450  0.40210  0.19080  Biso   1.000  C
  C16      1.0000 0.13370  0.39560  0.16440  Biso   1.000  C
  H13      1.0000 0.12800  0.36750  0.12120  Biso   1.000  H
  H14      1.0000 0.14570  0.48310  0.16520  Biso   1.000  H
  C17      1.0000 0.19000  0.12760  0.23240  Biso   1.000  C
  H15      1.0000 0.19540  0.03820  0.23920  Biso   1.000  H
  C18      1.0000 0.19620  0.33290  0.23860  Biso   1.000  C
  H16      1.0000 0.20540  0.41800  0.24890  Biso   1.000  H
  C19      1.0000 0.31080  0.20430  0.23310  Biso   1.000  C
  H17      1.0000 0.28690  0.16010  0.21700  Biso   1.000  H
  C20      1.0000 0.34900  0.30680  0.31460  Biso   1.000  C
  H18      1.0000 0.35240  0.33540  0.35580  Biso   1.000  H
  C21      1.0000 0.38000  0.33270  0.27950  Biso   1.000  C
  H19      1.0000 0.40380  0.37640  0.29650  Biso   1.000  H
  C22      1.0000 0.37400  0.29070  0.21820  Biso   1.000  C
  H20      1.0000 0.39390  0.30780  0.19300  Biso   1.000  H
  C23      1.0000 0.33930  0.22450  0.19420  Biso   1.000  C
  C24      1.0000 0.33240  0.17850  0.12770  Biso   1.000  C
  H21      1.0000 0.35600  0.13020  0.11820  Biso   1.000  H
  H22      1.0000 0.30880  0.12080  0.12050  Biso   1.000  H
  C25      1.0000 0.31060  0.27830  0.02760  Biso   1.000  C
  C26      1.0000 0.30390  0.15950  0.99750  Biso   1.000  C
  H23      1.0000 0.31120  0.08130  0.01880  Biso   1.000  H
  C27      1.0000 0.30170  0.39500  0.99500  Biso   1.000  C
  H24      1.0000 0.30750  0.47550  0.01500  Biso   1.000  H
  C28      1.0000 0.27290  0.51860  0.89840  Biso   1.000  C
  C29      1.0000 0.28400  0.39270  0.93270  Biso   1.000  C
  C30      1.0000 0.27560  0.27280  0.90290  Biso   1.000  C
  H25      1.0000 0.26310  0.27060  0.86160  Biso   1.000  H
  C31      1.0000 0.28610  0.15520  0.93480  Biso   1.000  C
  C32      1.0000 0.27680  0.02470  0.90240  Biso   1.000  C
  N1       1.0000 0.31467  0.24340  0.29280  Biso   1.000  N
  N2       1.0000 0.21426  0.22490  0.26120  Biso   1.000  N
  N3       1.0000 0.15830  0.17150  0.19430  Biso   1.000  N
  N4       1.0000 0.16280  0.30470  0.19870  Biso   1.000  N
  N5       1.0000 0.19500  0.21530  0.39410  Biso   1.000  N
  N6       1.0000 0.13140  0.15590  0.40960  Biso   1.000  N
  N7       1.0000 0.15050  0.22750  0.45760  Biso   1.000  N
  O1       1.0000 0.25112  0.51780  0.84630  Biso   1.000  O
  O2       1.0000 0.28648  0.62410  0.92390  Biso   1.000  O
  O3       1.0000 0.25820  0.02120  0.84850  Biso   1.000  O
  O4       1.0000 0.28885  0.92300  0.93160  Biso   1.000  O
  O5       1.0000 0.32590  0.29250  0.08990  Biso   1.000  O
  Cd2      1.0000 0.74123  0.22218  0.14610  Biso   1.000  Cd
  C33      1.0000 0.84060  0.15350  0.12760  Biso   1.000  C
  H26      1.0000 0.84490  0.11210  0.16630  Biso   1.000  H
  C34      1.0000 0.81160  0.26000  0.05230  Biso   1.000  C
  H27      1.0000 0.79290  0.30750  0.02470  Biso   1.000  H
  C35      1.0000 0.86750  0.24190  0.98490  Biso   1.000  C
  H28      1.0000 0.84830  0.28780  0.95430  Biso   1.000  H
  H29      1.0000 0.87200  0.15480  0.96860  Biso   1.000  H
  C36      1.0000 0.90710  0.31570  0.99390  Biso   1.000  C
  C37      1.0000 0.91170  0.43870  0.02090  Biso   1.000  C
  H30      1.0000 0.89010  0.47630  0.03780  Biso   1.000  H
  C38      1.0000 0.94920  0.50910  0.02310  Biso   1.000  C
  H31      1.0000 0.95180  0.59060  0.04320  Biso   1.000  H
  C39      1.0000 0.93860  0.27510  0.96600  Biso   1.000  C
  H32      1.0000 0.93580  0.19750  0.94280  Biso   1.000  H
  C40      1.0000 0.97520  0.34470  0.97060  Biso   1.000  C
  H33      1.0000 0.99680  0.30680  0.95390  Biso   1.000  H
  C41      1.0000 0.98090  0.46290  0.99760  Biso   1.000  C
  C42      1.0000 0.98010  0.41130  0.26450  Biso   1.000  C
  C43      1.0000 0.94360  0.41780  0.22750  Biso   1.000  C
  H34      1.0000 0.94350  0.42600  0.18480  Biso   1.000  H
  C44      1.0000 0.97710  0.39900  0.32100  Biso   1.000  C
  H35      1.0000 0.00110  0.38490  0.34850  Biso   1.000  H
  C45      1.0000 0.94140  0.40400  0.34550  Biso   1.000  C
  H36      1.0000 0.94220  0.40980  0.38840  Biso   1.000  H
  C46      1.0000 0.90700  0.41320  0.24880  Biso   1.000  C
  H37      1.0000 0.88290  0.41790  0.22090  Biso   1.000  H
  C47      1.0000 0.90550  0.40210  0.30920  Biso   1.000  C
  C48      1.0000 0.86630  0.39560  0.33560  Biso   1.000  C
  H38      1.0000 0.87200  0.36750  0.37880  Biso   1.000  H
  H39      1.0000 0.85430  0.48310  0.33480  Biso   1.000  H
  C49      1.0000 0.81000  0.12760  0.26760  Biso   1.000  C
  H40      1.0000 0.80460  0.03820  0.26080  Biso   1.000  H
  C50      1.0000 0.80380  0.33290  0.26140  Biso   1.000  C
  H41      1.0000 0.79460  0.41800  0.25110  Biso   1.000  H
  C51      1.0000 0.68920  0.20430  0.26690  Biso   1.000  C
  H42      1.0000 0.71310  0.16010  0.28300  Biso   1.000  H
  C52      1.0000 0.65100  0.30680  0.18540  Biso   1.000  C
  H43      1.0000 0.64760  0.33540  0.14420  Biso   1.000  H
  C53      1.0000 0.62000  0.33270  0.22050  Biso   1.000  C
  H44      1.0000 0.59620  0.37640  0.20350  Biso   1.000  H
  C54      1.0000 0.62600  0.29070  0.28180  Biso   1.000  C
  H45      1.0000 0.60610  0.30780  0.30700  Biso   1.000  H
  C55      1.0000 0.66070  0.22450  0.30580  Biso   1.000  C
  C56      1.0000 0.66760  0.17850  0.37230  Biso   1.000  C
  H46      1.0000 0.64400  0.13020  0.38180  Biso   1.000  H
  H47      1.0000 0.69120  0.12080  0.37950  Biso   1.000  H
  C57      1.0000 0.68940  0.27830  0.47240  Biso   1.000  C
  C58      1.0000 0.69610  0.15950  0.50250  Biso   1.000  C
  H48      1.0000 0.68880  0.08130  0.48120  Biso   1.000  H
  C59      1.0000 0.69830  0.39500  0.50500  Biso   1.000  C
  H49      1.0000 0.69250  0.47550  0.48500  Biso   1.000  H
  C60      1.0000 0.72710  0.51860  0.60160  Biso   1.000  C
  C61      1.0000 0.71600  0.39270  0.56730  Biso   1.000  C
  C62      1.0000 0.72440  0.27280  0.59710  Biso   1.000  C
  H50      1.0000 0.73690  0.27060  0.63840  Biso   1.000  H
  C63      1.0000 0.71390  0.15520  0.56520  Biso   1.000  C
  C64      1.0000 0.72320  0.02470  0.59760  Biso   1.000  C
  N8       1.0000 0.68533  0.24340  0.20720  Biso   1.000  N
  N9       1.0000 0.78574  0.22490  0.23880  Biso   1.000  N
  N10      1.0000 0.84170  0.17150  0.30570  Biso   1.000  N
  N11      1.0000 0.83720  0.30470  0.30130  Biso   1.000  N
  N12      1.0000 0.80500  0.21530  0.10590  Biso   1.000  N
  N13      1.0000 0.86860  0.15590  0.09040  Biso   1.000  N
  N14      1.0000 0.84950  0.22750  0.04240  Biso   1.000  N
  O6       1.0000 0.74888  0.51780  0.65370  Biso   1.000  O
  O7       1.0000 0.71352  0.62410  0.57610  Biso   1.000  O
  O8       1.0000 0.74180  0.02120  0.65150  Biso   1.000  O
  O9       1.0000 0.71115  0.92300  0.56840  Biso   1.000  O
  O10      1.0000 0.67410  0.29250  0.41010  Biso   1.000  O
  Cd3      1.0000 0.74123  0.77782  0.64610  Biso   1.000  Cd
  C65      1.0000 0.84060  0.84650  0.62760  Biso   1.000  C
  H51      1.0000 0.84490  0.88790  0.66630  Biso   1.000  H
  C66      1.0000 0.81160  0.74000  0.55230  Biso   1.000  C
  H52      1.0000 0.79290  0.69250  0.52470  Biso   1.000  H
  C67      1.0000 0.86750  0.75810  0.48490  Biso   1.000  C
  H53      1.0000 0.84830  0.71220  0.45430  Biso   1.000  H
  H54      1.0000 0.87200  0.84520  0.46860  Biso   1.000  H
  C68      1.0000 0.90710  0.68430  0.49390  Biso   1.000  C
  C69      1.0000 0.91170  0.56130  0.52090  Biso   1.000  C
  H55      1.0000 0.89010  0.52370  0.53780  Biso   1.000  H
  C70      1.0000 0.94920  0.49090  0.52310  Biso   1.000  C
  H56      1.0000 0.95180  0.40940  0.54320  Biso   1.000  H
  C71      1.0000 0.93860  0.72490  0.46600  Biso   1.000  C
  H57      1.0000 0.93580  0.80250  0.44280  Biso   1.000  H
  C72      1.0000 0.97520  0.65530  0.47060  Biso   1.000  C
  H58      1.0000 0.99680  0.69320  0.45390  Biso   1.000  H
  C73      1.0000 0.98090  0.53710  0.49760  Biso   1.000  C
  C74      1.0000 0.98010  0.58870  0.76450  Biso   1.000  C
  C75      1.0000 0.94360  0.58220  0.72750  Biso   1.000  C
  H59      1.0000 0.94350  0.57400  0.68480  Biso   1.000  H
  C76      1.0000 0.97710  0.60100  0.82100  Biso   1.000  C
  H60      1.0000 0.00110  0.61510  0.84850  Biso   1.000  H
  C77      1.0000 0.94140  0.59600  0.84550  Biso   1.000  C
  H61      1.0000 0.94220  0.59020  0.88840  Biso   1.000  H
  C78      1.0000 0.90700  0.58680  0.74880  Biso   1.000  C
  H62      1.0000 0.88290  0.58210  0.72090  Biso   1.000  H
  C79      1.0000 0.90550  0.59790  0.80920  Biso   1.000  C
  C80      1.0000 0.86630  0.60440  0.83560  Biso   1.000  C
  H63      1.0000 0.87200  0.63250  0.87880  Biso   1.000  H
  H64      1.0000 0.85430  0.51690  0.83480  Biso   1.000  H
  C81      1.0000 0.81000  0.87240  0.76760  Biso   1.000  C
  H65      1.0000 0.80460  0.96180  0.76080  Biso   1.000  H
  C82      1.0000 0.80380  0.66710  0.76140  Biso   1.000  C
  H66      1.0000 0.79460  0.58200  0.75110  Biso   1.000  H
  C83      1.0000 0.68920  0.79570  0.76690  Biso   1.000  C
  H67      1.0000 0.71310  0.83990  0.78300  Biso   1.000  H
  C84      1.0000 0.65100  0.69320  0.68540  Biso   1.000  C
  H68      1.0000 0.64760  0.66460  0.64420  Biso   1.000  H
  C85      1.0000 0.62000  0.66730  0.72050  Biso   1.000  C
  H69      1.0000 0.59620  0.62360  0.70350  Biso   1.000  H
  C86      1.0000 0.62600  0.70930  0.78180  Biso   1.000  C
  H70      1.0000 0.60610  0.69220  0.80700  Biso   1.000  H
  C87      1.0000 0.66070  0.77550  0.80580  Biso   1.000  C
  C88      1.0000 0.66760  0.82150  0.87230  Biso   1.000  C
  H71      1.0000 0.64400  0.86980  0.88180  Biso   1.000  H
  H72      1.0000 0.69120  0.87920  0.87950  Biso   1.000  H
  C89      1.0000 0.68940  0.72170  0.97240  Biso   1.000  C
  C90      1.0000 0.69610  0.84050  0.00250  Biso   1.000  C
  H73      1.0000 0.68880  0.91870  0.98120  Biso   1.000  H
  C91      1.0000 0.69830  0.60500  0.00500  Biso   1.000  C
  H74      1.0000 0.69250  0.52450  0.98500  Biso   1.000  H
  C92      1.0000 0.72710  0.48140  0.10160  Biso   1.000  C
  C93      1.0000 0.71600  0.60730  0.06730  Biso   1.000  C
  C94      1.0000 0.72440  0.72720  0.09710  Biso   1.000  C
  H75      1.0000 0.73690  0.72940  0.13840  Biso   1.000  H
  C95      1.0000 0.71390  0.84480  0.06520  Biso   1.000  C
  C96      1.0000 0.72320  0.97530  0.09760  Biso   1.000  C
  N15      1.0000 0.68533  0.75660  0.70720  Biso   1.000  N
  N16      1.0000 0.78574  0.77510  0.73880  Biso   1.000  N
  N17      1.0000 0.84170  0.82850  0.80570  Biso   1.000  N
  N18      1.0000 0.83720  0.69530  0.80130  Biso   1.000  N
  N19      1.0000 0.80500  0.78470  0.60590  Biso   1.000  N
  N20      1.0000 0.86860  0.84410  0.59040  Biso   1.000  N
  N21      1.0000 0.84950  0.77250  0.54240  Biso   1.000  N
  O11      1.0000 0.74888  0.48220  0.15370  Biso   1.000  O
  O12      1.0000 0.71352  0.37590  0.07610  Biso   1.000  O
  O13      1.0000 0.74180  0.97880  0.15150  Biso   1.000  O
  O14      1.0000 0.71115  0.07700  0.06840  Biso   1.000  O
  O15      1.0000 0.67410  0.70750  0.91010  Biso   1.000  O
  Cd4      1.0000 0.25877  0.77782  0.85390  Biso   1.000  Cd
  C97      1.0000 0.15940  0.84650  0.87240  Biso   1.000  C
  H76      1.0000 0.15510  0.88790  0.83370  Biso   1.000  H
  C98      1.0000 0.18840  0.74000  0.94770  Biso   1.000  C
  H77      1.0000 0.20710  0.69250  0.97530  Biso   1.000  H
  C99      1.0000 0.13250  0.75810  0.01510  Biso   1.000  C
  H78      1.0000 0.15170  0.71220  0.04570  Biso   1.000  H
  H79      1.0000 0.12800  0.84520  0.03140  Biso   1.000  H
  C100     1.0000 0.09290  0.68430  0.00610  Biso   1.000  C
  C101     1.0000 0.08830  0.56130  0.97910  Biso   1.000  C
  H80      1.0000 0.10990  0.52370  0.96220  Biso   1.000  H
  C102     1.0000 0.05080  0.49090  0.97690  Biso   1.000  C
  H81      1.0000 0.04820  0.40940  0.95680  Biso   1.000  H
  C103     1.0000 0.06140  0.72490  0.03400  Biso   1.000  C
  H82      1.0000 0.06420  0.80250  0.05720  Biso   1.000  H
  C104     1.0000 0.02480  0.65530  0.02940  Biso   1.000  C
  H83      1.0000 0.00320  0.69320  0.04610  Biso   1.000  H
  C105     1.0000 0.01910  0.53710  0.00240  Biso   1.000  C
  C106     1.0000 0.01990  0.58870  0.73550  Biso   1.000  C
  C107     1.0000 0.05640  0.58220  0.77250  Biso   1.000  C
  H84      1.0000 0.05650  0.57400  0.81520  Biso   1.000  H
  C108     1.0000 0.02290  0.60100  0.67900  Biso   1.000  C
  H85      1.0000 0.99890  0.61510  0.65150  Biso   1.000  H
  C109     1.0000 0.05860  0.59600  0.65450  Biso   1.000  C
  H86      1.0000 0.05780  0.59020  0.61160  Biso   1.000  H
  C110     1.0000 0.09300  0.58680  0.75120  Biso   1.000  C
  H87      1.0000 0.11710  0.58210  0.77910  Biso   1.000  H
  C111     1.0000 0.09450  0.59790  0.69080  Biso   1.000  C
  C112     1.0000 0.13370  0.60440  0.66440  Biso   1.000  C
  H88      1.0000 0.12800  0.63250  0.62120  Biso   1.000  H
  H89      1.0000 0.14570  0.51690  0.66520  Biso   1.000  H
  C113     1.0000 0.19000  0.87240  0.73240  Biso   1.000  C
  H90      1.0000 0.19540  0.96180  0.73920  Biso   1.000  H
  C114     1.0000 0.19620  0.66710  0.73860  Biso   1.000  C
  H91      1.0000 0.20540  0.58200  0.74890  Biso   1.000  H
  C115     1.0000 0.31080  0.79570  0.73310  Biso   1.000  C
  H92      1.0000 0.28690  0.83990  0.71700  Biso   1.000  H
  C116     1.0000 0.34900  0.69320  0.81460  Biso   1.000  C
  H93      1.0000 0.35240  0.66460  0.85580  Biso   1.000  H
  C117     1.0000 0.38000  0.66730  0.77950  Biso   1.000  C
  H94      1.0000 0.40380  0.62360  0.79650  Biso   1.000  H
  C118     1.0000 0.37400  0.70930  0.71820  Biso   1.000  C
  H95      1.0000 0.39390  0.69220  0.69300  Biso   1.000  H
  C119     1.0000 0.33930  0.77550  0.69420  Biso   1.000  C
  C120     1.0000 0.33240  0.82150  0.62770  Biso   1.000  C
  H96      1.0000 0.35600  0.86980  0.61820  Biso   1.000  H
  H97      1.0000 0.30880  0.87920  0.62050  Biso   1.000  H
  C121     1.0000 0.31060  0.72170  0.52760  Biso   1.000  C
  C122     1.0000 0.30390  0.84050  0.49750  Biso   1.000  C
  H98      1.0000 0.31120  0.91870  0.51880  Biso   1.000  H
  C123     1.0000 0.30170  0.60500  0.49500  Biso   1.000  C
  H99      1.0000 0.30750  0.52450  0.51500  Biso   1.000  H
  C124     1.0000 0.27290  0.48140  0.39840  Biso   1.000  C
  C125     1.0000 0.28400  0.60730  0.43270  Biso   1.000  C
  C126     1.0000 0.27560  0.72720  0.40290  Biso   1.000  C
  H100     1.0000 0.26310  0.72940  0.36160  Biso   1.000  H
  C127     1.0000 0.28610  0.84480  0.43480  Biso   1.000  C
  C128     1.0000 0.27680  0.97530  0.40240  Biso   1.000  C
  N22      1.0000 0.31467  0.75660  0.79280  Biso   1.000  N
  N23      1.0000 0.21426  0.77510  0.76120  Biso   1.000  N
  N24      1.0000 0.15830  0.82850  0.69430  Biso   1.000  N
  N25      1.0000 0.16280  0.69530  0.69870  Biso   1.000  N
  N26      1.0000 0.19500  0.78470  0.89410  Biso   1.000  N
  N27      1.0000 0.13140  0.84410  0.90960  Biso   1.000  N
  N28      1.0000 0.15050  0.77250  0.95760  Biso   1.000  N
  O16      1.0000 0.25112  0.48220  0.34630  Biso   1.000  O
  O17      1.0000 0.28648  0.37590  0.42390  Biso   1.000  O
  O18      1.0000 0.25820  0.97880  0.34850  Biso   1.000  O
  O19      1.0000 0.28885  0.07700  0.43160  Biso   1.000  O
  O20      1.0000 0.32590  0.70750  0.58990  Biso   1.000  O
  Cd5      1.0000 0.75877  0.72218  0.35390  Biso   1.000  Cd
  C129     1.0000 0.65940  0.65350  0.37240  Biso   1.000  C
  H101     1.0000 0.65510  0.61210  0.33370  Biso   1.000  H
  C130     1.0000 0.68840  0.76000  0.44770  Biso   1.000  C
  H102     1.0000 0.70710  0.80750  0.47530  Biso   1.000  H
  C131     1.0000 0.63250  0.74190  0.51510  Biso   1.000  C
  H103     1.0000 0.65170  0.78780  0.54570  Biso   1.000  H
  H104     1.0000 0.62800  0.65480  0.53140  Biso   1.000  H
  C132     1.0000 0.59290  0.81570  0.50610  Biso   1.000  C
  C133     1.0000 0.58830  0.93870  0.47910  Biso   1.000  C
  H105     1.0000 0.60990  0.97630  0.46220  Biso   1.000  H
  C134     1.0000 0.55080  0.00910  0.47690  Biso   1.000  C
  H106     1.0000 0.54820  0.09060  0.45680  Biso   1.000  H
  C135     1.0000 0.56140  0.77510  0.53400  Biso   1.000  C
  H107     1.0000 0.56420  0.69750  0.55720  Biso   1.000  H
  C136     1.0000 0.52480  0.84470  0.52940  Biso   1.000  C
  H108     1.0000 0.50320  0.80680  0.54610  Biso   1.000  H
  C137     1.0000 0.51910  0.96290  0.50240  Biso   1.000  C
  C138     1.0000 0.51990  0.91130  0.23550  Biso   1.000  C
  C139     1.0000 0.55640  0.91780  0.27250  Biso   1.000  C
  H109     1.0000 0.55650  0.92600  0.31520  Biso   1.000  H
  C140     1.0000 0.52290  0.89900  0.17900  Biso   1.000  C
  H110     1.0000 0.49890  0.88490  0.15150  Biso   1.000  H
  C141     1.0000 0.55860  0.90400  0.15450  Biso   1.000  C
  H111     1.0000 0.55780  0.90980  0.11160  Biso   1.000  H
  C142     1.0000 0.59300  0.91320  0.25120  Biso   1.000  C
  H112     1.0000 0.61710  0.91790  0.27910  Biso   1.000  H
  C143     1.0000 0.59450  0.90210  0.19080  Biso   1.000  C
  C144     1.0000 0.63370  0.89560  0.16440  Biso   1.000  C
  H113     1.0000 0.62800  0.86750  0.12120  Biso   1.000  H
  H114     1.0000 0.64570  0.98310  0.16520  Biso   1.000  H
  C145     1.0000 0.69000  0.62760  0.23240  Biso   1.000  C
  H115     1.0000 0.69540  0.53820  0.23920  Biso   1.000  H
  C146     1.0000 0.69620  0.83290  0.23860  Biso   1.000  C
  H116     1.0000 0.70540  0.91800  0.24890  Biso   1.000  H
  C147     1.0000 0.81080  0.70430  0.23310  Biso   1.000  C
  H117     1.0000 0.78690  0.66010  0.21700  Biso   1.000  H
  C148     1.0000 0.84900  0.80680  0.31460  Biso   1.000  C
  H118     1.0000 0.85240  0.83540  0.35580  Biso   1.000  H
  C149     1.0000 0.88000  0.83270  0.27950  Biso   1.000  C
  H119     1.0000 0.90380  0.87640  0.29650  Biso   1.000  H
  C150     1.0000 0.87400  0.79070  0.21820  Biso   1.000  C
  H120     1.0000 0.89390  0.80780  0.19300  Biso   1.000  H
  C151     1.0000 0.83930  0.72450  0.19420  Biso   1.000  C
  C152     1.0000 0.83240  0.67850  0.12770  Biso   1.000  C
  H121     1.0000 0.85600  0.63020  0.11820  Biso   1.000  H
  H122     1.0000 0.80880  0.62080  0.12050  Biso   1.000  H
  C153     1.0000 0.81060  0.77830  0.02760  Biso   1.000  C
  C154     1.0000 0.80390  0.65950  0.99750  Biso   1.000  C
  H123     1.0000 0.81120  0.58130  0.01880  Biso   1.000  H
  C155     1.0000 0.80170  0.89500  0.99500  Biso   1.000  C
  H124     1.0000 0.80750  0.97550  0.01500  Biso   1.000  H
  C156     1.0000 0.77290  0.01860  0.89840  Biso   1.000  C
  C157     1.0000 0.78400  0.89270  0.93270  Biso   1.000  C
  C158     1.0000 0.77560  0.77280  0.90290  Biso   1.000  C
  H125     1.0000 0.76310  0.77060  0.86160  Biso   1.000  H
  C159     1.0000 0.78610  0.65520  0.93480  Biso   1.000  C
  C160     1.0000 0.77680  0.52470  0.90240  Biso   1.000  C
  N29      1.0000 0.81467  0.74340  0.29280  Biso   1.000  N
  N30      1.0000 0.71426  0.72490  0.26120  Biso   1.000  N
  N31      1.0000 0.65830  0.67150  0.19430  Biso   1.000  N
  N32      1.0000 0.66280  0.80470  0.19870  Biso   1.000  N
  N33      1.0000 0.69500  0.71530  0.39410  Biso   1.000  N
  N34      1.0000 0.63140  0.65590  0.40960  Biso   1.000  N
  N35      1.0000 0.65050  0.72750  0.45760  Biso   1.000  N
  O21      1.0000 0.75112  0.01780  0.84630  Biso   1.000  O
  O22      1.0000 0.78648  0.12410  0.92390  Biso   1.000  O
  O23      1.0000 0.75820  0.52120  0.84850  Biso   1.000  O
  O24      1.0000 0.78885  0.42300  0.93160  Biso   1.000  O
  O25      1.0000 0.82590  0.79250  0.08990  Biso   1.000  O
  Cd6      1.0000 0.24123  0.72218  0.14610  Biso   1.000  Cd
  C161     1.0000 0.34060  0.65350  0.12760  Biso   1.000  C
  H126     1.0000 0.34490  0.61210  0.16630  Biso   1.000  H
  C162     1.0000 0.31160  0.76000  0.05230  Biso   1.000  C
  H127     1.0000 0.29290  0.80750  0.02470  Biso   1.000  H
  C163     1.0000 0.36750  0.74190  0.98490  Biso   1.000  C
  H128     1.0000 0.34830  0.78780  0.95430  Biso   1.000  H
  H129     1.0000 0.37200  0.65480  0.96860  Biso   1.000  H
  C164     1.0000 0.40710  0.81570  0.99390  Biso   1.000  C
  C165     1.0000 0.41170  0.93870  0.02090  Biso   1.000  C
  H130     1.0000 0.39010  0.97630  0.03780  Biso   1.000  H
  C166     1.0000 0.44920  0.00910  0.02310  Biso   1.000  C
  H131     1.0000 0.45180  0.09060  0.04320  Biso   1.000  H
  C167     1.0000 0.43860  0.77510  0.96600  Biso   1.000  C
  H132     1.0000 0.43580  0.69750  0.94280  Biso   1.000  H
  C168     1.0000 0.47520  0.84470  0.97060  Biso   1.000  C
  H133     1.0000 0.49680  0.80680  0.95390  Biso   1.000  H
  C169     1.0000 0.48090  0.96290  0.99760  Biso   1.000  C
  C170     1.0000 0.48010  0.91130  0.26450  Biso   1.000  C
  C171     1.0000 0.44360  0.91780  0.22750  Biso   1.000  C
  H134     1.0000 0.44350  0.92600  0.18480  Biso   1.000  H
  C172     1.0000 0.47710  0.89900  0.32100  Biso   1.000  C
  H135     1.0000 0.50110  0.88490  0.34850  Biso   1.000  H
  C173     1.0000 0.44140  0.90400  0.34550  Biso   1.000  C
  H136     1.0000 0.44220  0.90980  0.38840  Biso   1.000  H
  C174     1.0000 0.40700  0.91320  0.24880  Biso   1.000  C
  H137     1.0000 0.38290  0.91790  0.22090  Biso   1.000  H
  C175     1.0000 0.40550  0.90210  0.30920  Biso   1.000  C
  C176     1.0000 0.36630  0.89560  0.33560  Biso   1.000  C
  H138     1.0000 0.37200  0.86750  0.37880  Biso   1.000  H
  H139     1.0000 0.35430  0.98310  0.33480  Biso   1.000  H
  C177     1.0000 0.31000  0.62760  0.26760  Biso   1.000  C
  H140     1.0000 0.30460  0.53820  0.26080  Biso   1.000  H
  C178     1.0000 0.30380  0.83290  0.26140  Biso   1.000  C
  H141     1.0000 0.29460  0.91800  0.25110  Biso   1.000  H
  C179     1.0000 0.18920  0.70430  0.26690  Biso   1.000  C
  H142     1.0000 0.21310  0.66010  0.28300  Biso   1.000  H
  C180     1.0000 0.15100  0.80680  0.18540  Biso   1.000  C
  H143     1.0000 0.14760  0.83540  0.14420  Biso   1.000  H
  C181     1.0000 0.12000  0.83270  0.22050  Biso   1.000  C
  H144     1.0000 0.09620  0.87640  0.20350  Biso   1.000  H
  C182     1.0000 0.12600  0.79070  0.28180  Biso   1.000  C
  H145     1.0000 0.10610  0.80780  0.30700  Biso   1.000  H
  C183     1.0000 0.16070  0.72450  0.30580  Biso   1.000  C
  C184     1.0000 0.16760  0.67850  0.37230  Biso   1.000  C
  H146     1.0000 0.14400  0.63020  0.38180  Biso   1.000  H
  H147     1.0000 0.19120  0.62080  0.37950  Biso   1.000  H
  C185     1.0000 0.18940  0.77830  0.47240  Biso   1.000  C
  C186     1.0000 0.19610  0.65950  0.50250  Biso   1.000  C
  H148     1.0000 0.18880  0.58130  0.48120  Biso   1.000  H
  C187     1.0000 0.19830  0.89500  0.50500  Biso   1.000  C
  H149     1.0000 0.19250  0.97550  0.48500  Biso   1.000  H
  C188     1.0000 0.22710  0.01860  0.60160  Biso   1.000  C
  C189     1.0000 0.21600  0.89270  0.56730  Biso   1.000  C
  C190     1.0000 0.22440  0.77280  0.59710  Biso   1.000  C
  H150     1.0000 0.23690  0.77060  0.63840  Biso   1.000  H
  C191     1.0000 0.21390  0.65520  0.56520  Biso   1.000  C
  C192     1.0000 0.22320  0.52470  0.59760  Biso   1.000  C
  N36      1.0000 0.18533  0.74340  0.20720  Biso   1.000  N
  N37      1.0000 0.28574  0.72490  0.23880  Biso   1.000  N
  N38      1.0000 0.34170  0.67150  0.30570  Biso   1.000  N
  N39      1.0000 0.33720  0.80470  0.30130  Biso   1.000  N
  N40      1.0000 0.30500  0.71530  0.10590  Biso   1.000  N
  N41      1.0000 0.36860  0.65590  0.09040  Biso   1.000  N
  N42      1.0000 0.34950  0.72750  0.04240  Biso   1.000  N
  O26      1.0000 0.24888  0.01780  0.65370  Biso   1.000  O
  O27      1.0000 0.21352  0.12410  0.57610  Biso   1.000  O
  O28      1.0000 0.24180  0.52120  0.65150  Biso   1.000  O
  O29      1.0000 0.21115  0.42300  0.56840  Biso   1.000  O
  O30      1.0000 0.17410  0.79250  0.41010  Biso   1.000  O
  Cd7      1.0000 0.24123  0.27782  0.64610  Biso   1.000  Cd
  C193     1.0000 0.34060  0.34650  0.62760  Biso   1.000  C
  H151     1.0000 0.34490  0.38790  0.66630  Biso   1.000  H
  C194     1.0000 0.31160  0.24000  0.55230  Biso   1.000  C
  H152     1.0000 0.29290  0.19250  0.52470  Biso   1.000  H
  C195     1.0000 0.36750  0.25810  0.48490  Biso   1.000  C
  H153     1.0000 0.34830  0.21220  0.45430  Biso   1.000  H
  H154     1.0000 0.37200  0.34520  0.46860  Biso   1.000  H
  C196     1.0000 0.40710  0.18430  0.49390  Biso   1.000  C
  C197     1.0000 0.41170  0.06130  0.52090  Biso   1.000  C
  H155     1.0000 0.39010  0.02370  0.53780  Biso   1.000  H
  C198     1.0000 0.44920  0.99090  0.52310  Biso   1.000  C
  H156     1.0000 0.45180  0.90940  0.54320  Biso   1.000  H
  C199     1.0000 0.43860  0.22490  0.46600  Biso   1.000  C
  H157     1.0000 0.43580  0.30250  0.44280  Biso   1.000  H
  C200     1.0000 0.47520  0.15530  0.47060  Biso   1.000  C
  H158     1.0000 0.49680  0.19320  0.45390  Biso   1.000  H
  C201     1.0000 0.48090  0.03710  0.49760  Biso   1.000  C
  C202     1.0000 0.48010  0.08870  0.76450  Biso   1.000  C
  C203     1.0000 0.44360  0.08220  0.72750  Biso   1.000  C
  H159     1.0000 0.44350  0.07400  0.68480  Biso   1.000  H
  C204     1.0000 0.47710  0.10100  0.82100  Biso   1.000  C
  H160     1.0000 0.50110  0.11510  0.84850  Biso   1.000  H
  C205     1.0000 0.44140  0.09600  0.84550  Biso   1.000  C
  H161     1.0000 0.44220  0.09020  0.88840  Biso   1.000  H
  C206     1.0000 0.40700  0.08680  0.74880  Biso   1.000  C
  H162     1.0000 0.38290  0.08210  0.72090  Biso   1.000  H
  C207     1.0000 0.40550  0.09790  0.80920  Biso   1.000  C
  C208     1.0000 0.36630  0.10440  0.83560  Biso   1.000  C
  H163     1.0000 0.37200  0.13250  0.87880  Biso   1.000  H
  H164     1.0000 0.35430  0.01690  0.83480  Biso   1.000  H
  C209     1.0000 0.31000  0.37240  0.76760  Biso   1.000  C
  H165     1.0000 0.30460  0.46180  0.76080  Biso   1.000  H
  C210     1.0000 0.30380  0.16710  0.76140  Biso   1.000  C
  H166     1.0000 0.29460  0.08200  0.75110  Biso   1.000  H
  C211     1.0000 0.18920  0.29570  0.76690  Biso   1.000  C
  H167     1.0000 0.21310  0.33990  0.78300  Biso   1.000  H
  C212     1.0000 0.15100  0.19320  0.68540  Biso   1.000  C
  H168     1.0000 0.14760  0.16460  0.64420  Biso   1.000  H
  C213     1.0000 0.12000  0.16730  0.72050  Biso   1.000  C
  H169     1.0000 0.09620  0.12360  0.70350  Biso   1.000  H
  C214     1.0000 0.12600  0.20930  0.78180  Biso   1.000  C
  H170     1.0000 0.10610  0.19220  0.80700  Biso   1.000  H
  C215     1.0000 0.16070  0.27550  0.80580  Biso   1.000  C
  C216     1.0000 0.16760  0.32150  0.87230  Biso   1.000  C
  H171     1.0000 0.14400  0.36980  0.88180  Biso   1.000  H
  H172     1.0000 0.19120  0.37920  0.87950  Biso   1.000  H
  C217     1.0000 0.18940  0.22170  0.97240  Biso   1.000  C
  C218     1.0000 0.19610  0.34050  0.00250  Biso   1.000  C
  H173     1.0000 0.18880  0.41870  0.98120  Biso   1.000  H
  C219     1.0000 0.19830  0.10500  0.00500  Biso   1.000  C
  H174     1.0000 0.19250  0.02450  0.98500  Biso   1.000  H
  C220     1.0000 0.22710  0.98140  0.10160  Biso   1.000  C
  C221     1.0000 0.21600  0.10730  0.06730  Biso   1.000  C
  C222     1.0000 0.22440  0.22720  0.09710  Biso   1.000  C
  H175     1.0000 0.23690  0.22940  0.13840  Biso   1.000  H
  C223     1.0000 0.21390  0.34480  0.06520  Biso   1.000  C
  C224     1.0000 0.22320  0.47530  0.09760  Biso   1.000  C
  N43      1.0000 0.18533  0.25660  0.70720  Biso   1.000  N
  N44      1.0000 0.28574  0.27510  0.73880  Biso   1.000  N
  N45      1.0000 0.34170  0.32850  0.80570  Biso   1.000  N
  N46      1.0000 0.33720  0.19530  0.80130  Biso   1.000  N
  N47      1.0000 0.30500  0.28470  0.60590  Biso   1.000  N
  N48      1.0000 0.36860  0.34410  0.59040  Biso   1.000  N
  N49      1.0000 0.34950  0.27250  0.54240  Biso   1.000  N
  O31      1.0000 0.24888  0.98220  0.15370  Biso   1.000  O
  O32      1.0000 0.21352  0.87590  0.07610  Biso   1.000  O
  O33      1.0000 0.24180  0.47880  0.15150  Biso   1.000  O
  O34      1.0000 0.21115  0.57700  0.06840  Biso   1.000  O
  O35      1.0000 0.17410  0.20750  0.91010  Biso   1.000  O
  Cd8      1.0000 0.75877  0.27782  0.85390  Biso   1.000  Cd
  C225     1.0000 0.65940  0.34650  0.87240  Biso   1.000  C
  H176     1.0000 0.65510  0.38790  0.83370  Biso   1.000  H
  C226     1.0000 0.68840  0.24000  0.94770  Biso   1.000  C
  H177     1.0000 0.70710  0.19250  0.97530  Biso   1.000  H
  C227     1.0000 0.63250  0.25810  0.01510  Biso   1.000  C
  H178     1.0000 0.65170  0.21220  0.04570  Biso   1.000  H
  H179     1.0000 0.62800  0.34520  0.03140  Biso   1.000  H
  C228     1.0000 0.59290  0.18430  0.00610  Biso   1.000  C
  C229     1.0000 0.58830  0.06130  0.97910  Biso   1.000  C
  H180     1.0000 0.60990  0.02370  0.96220  Biso   1.000  H
  C230     1.0000 0.55080  0.99090  0.97690  Biso   1.000  C
  H181     1.0000 0.54820  0.90940  0.95680  Biso   1.000  H
  C231     1.0000 0.56140  0.22490  0.03400  Biso   1.000  C
  H182     1.0000 0.56420  0.30250  0.05720  Biso   1.000  H
  C232     1.0000 0.52480  0.15530  0.02940  Biso   1.000  C
  H183     1.0000 0.50320  0.19320  0.04610  Biso   1.000  H
  C233     1.0000 0.51910  0.03710  0.00240  Biso   1.000  C
  C234     1.0000 0.51990  0.08870  0.73550  Biso   1.000  C
  C235     1.0000 0.55640  0.08220  0.77250  Biso   1.000  C
  H184     1.0000 0.55650  0.07400  0.81520  Biso   1.000  H
  C236     1.0000 0.52290  0.10100  0.67900  Biso   1.000  C
  H185     1.0000 0.49890  0.11510  0.65150  Biso   1.000  H
  C237     1.0000 0.55860  0.09600  0.65450  Biso   1.000  C
  H186     1.0000 0.55780  0.09020  0.61160  Biso   1.000  H
  C238     1.0000 0.59300  0.08680  0.75120  Biso   1.000  C
  H187     1.0000 0.61710  0.08210  0.77910  Biso   1.000  H
  C239     1.0000 0.59450  0.09790  0.69080  Biso   1.000  C
  C240     1.0000 0.63370  0.10440  0.66440  Biso   1.000  C
  H188     1.0000 0.62800  0.13250  0.62120  Biso   1.000  H
  H189     1.0000 0.64570  0.01690  0.66520  Biso   1.000  H
  C241     1.0000 0.69000  0.37240  0.73240  Biso   1.000  C
  H190     1.0000 0.69540  0.46180  0.73920  Biso   1.000  H
  C242     1.0000 0.69620  0.16710  0.73860  Biso   1.000  C
  H191     1.0000 0.70540  0.08200  0.74890  Biso   1.000  H
  C243     1.0000 0.81080  0.29570  0.73310  Biso   1.000  C
  H192     1.0000 0.78690  0.33990  0.71700  Biso   1.000  H
  C244     1.0000 0.84900  0.19320  0.81460  Biso   1.000  C
  H193     1.0000 0.85240  0.16460  0.85580  Biso   1.000  H
  C245     1.0000 0.88000  0.16730  0.77950  Biso   1.000  C
  H194     1.0000 0.90380  0.12360  0.79650  Biso   1.000  H
  C246     1.0000 0.87400  0.20930  0.71820  Biso   1.000  C
  H195     1.0000 0.89390  0.19220  0.69300  Biso   1.000  H
  C247     1.0000 0.83930  0.27550  0.69420  Biso   1.000  C
  C248     1.0000 0.83240  0.32150  0.62770  Biso   1.000  C
  H196     1.0000 0.85600  0.36980  0.61820  Biso   1.000  H
  H197     1.0000 0.80880  0.37920  0.62050  Biso   1.000  H
  C249     1.0000 0.81060  0.22170  0.52760  Biso   1.000  C
  C250     1.0000 0.80390  0.34050  0.49750  Biso   1.000  C
  H198     1.0000 0.81120  0.41870  0.51880  Biso   1.000  H
  C251     1.0000 0.80170  0.10500  0.49500  Biso   1.000  C
  H199     1.0000 0.80750  0.02450  0.51500  Biso   1.000  H
  C252     1.0000 0.77290  0.98140  0.39840  Biso   1.000  C
  C253     1.0000 0.78400  0.10730  0.43270  Biso   1.000  C
  C254     1.0000 0.77560  0.22720  0.40290  Biso   1.000  C
  H200     1.0000 0.76310  0.22940  0.36160  Biso   1.000  H
  C255     1.0000 0.78610  0.34480  0.43480  Biso   1.000  C
  C256     1.0000 0.77680  0.47530  0.40240  Biso   1.000  C
  N50      1.0000 0.81467  0.25660  0.79280  Biso   1.000  N
  N51      1.0000 0.71426  0.27510  0.76120  Biso   1.000  N
  N52      1.0000 0.65830  0.32850  0.69430  Biso   1.000  N
  N53      1.0000 0.66280  0.19530  0.69870  Biso   1.000  N
  N54      1.0000 0.69500  0.28470  0.89410  Biso   1.000  N
  N55      1.0000 0.63140  0.34410  0.90960  Biso   1.000  N
  N56      1.0000 0.65050  0.27250  0.95760  Biso   1.000  N
  O36      1.0000 0.75112  0.98220  0.34630  Biso   1.000  O
  O37      1.0000 0.78648  0.87590  0.42390  Biso   1.000  O
  O38      1.0000 0.75820  0.47880  0.34850  Biso   1.000  O
  O39      1.0000 0.78885  0.57700  0.43160  Biso   1.000  O
  O40      1.0000 0.82590  0.20750  0.58990  Biso   1.000  O
