data_image0
_cell_length_a       9.655
_cell_length_b       13.6225
_cell_length_c       15.0708
_cell_angle_alpha    87.767
_cell_angle_beta     80.338
_cell_angle_gamma    72.707

_symmetry_space_group_name_H-M    "P 1"
_symmetry_int_tables_number       1

loop_
  _symmetry_equiv_pos_as_xyz
  'x, y, z'

loop_
  _atom_site_label
  _atom_site_occupancy
  _atom_site_fract_x
  _atom_site_fract_y
  _atom_site_fract_z
  _atom_site_thermal_displace_type
  _atom_site_B_iso_or_equiv
  _atom_site_type_symbol
  Ag1      1.0000 0.77995  0.50395  0.70544  Biso   1.000  Ag
  Ag2      1.0000 0.65525  0.51159  0.53749  Biso   1.000  Ag
  Ag3      1.0000 0.02447  0.41525  0.56338  Biso   1.000  Ag
  O1       1.0000 0.74060  0.65080  0.54310  Biso   1.000  O
  O2       1.0000 0.68070  0.67530  0.69220  Biso   1.000  O
  O3       1.0000 0.41220  0.87900  0.80510  Biso   1.000  O
  O4       1.0000 0.12510  0.54070  0.57320  Biso   1.000  O
  O5       1.0000 0.02210  0.55250  0.71710  Biso   1.000  O
  O6       1.0000 0.92170  0.29170  0.59510  Biso   1.000  O
  O7       1.0000 0.88140  0.33350  0.74150  Biso   1.000  O
  O8       1.0000 0.02980  0.19770  0.91220  Biso   1.000  O
  O9       1.0000 0.55630  0.43950  0.73790  Biso   1.000  O
  O10      1.0000 0.50630  0.42630  0.59990  Biso   1.000  O
  C1       1.0000 0.69570  0.70660  0.61320  Biso   1.000  C
  C2       1.0000 0.65480  0.82080  0.60090  Biso   1.000  C
  C3       1.0000 0.74000  0.86390  0.53690  Biso   1.000  C
  H1       1.0000 0.82040  0.82160  0.49960  Biso   1.000  H
  C4       1.0000 0.70550  0.97000  0.52840  Biso   1.000  C
  H2       1.0000 0.76310  0.99840  0.48550  Biso   1.000  H
  C5       1.0000 0.58690  0.03300  0.58320  Biso   1.000  C
  H3       1.0000 0.56390  0.10400  0.57710  Biso   1.000  H
  C6       1.0000 0.50190  0.99090  0.64710  Biso   1.000  C
  H4       1.0000 0.42200  0.03410  0.68420  Biso   1.000  H
  C7       1.0000 0.53370  0.88490  0.65700  Biso   1.000  C
  C8       1.0000 0.43640  0.84530  0.72840  Biso   1.000  C
  C9       1.0000 0.35960  0.77130  0.70570  Biso   1.000  C
  C10      1.0000 0.29780  0.71970  0.77460  Biso   1.000  C
  H5       1.0000 0.31100  0.72780  0.83330  Biso   1.000  H
  C11      1.0000 0.21670  0.65630  0.75770  Biso   1.000  C
  H6       1.0000 0.17650  0.62170  0.80470  Biso   1.000  H
  C12      1.0000 0.19500  0.64400  0.66990  Biso   1.000  C
  C13      1.0000 0.25630  0.69580  0.60040  Biso   1.000  C
  H7       1.0000 0.24230  0.68810  0.54180  Biso   1.000  H
  C14      1.0000 0.33810  0.75890  0.61770  Biso   1.000  C
  H8       1.0000 0.37880  0.79320  0.57070  Biso   1.000  H
  C15      1.0000 0.10580  0.57440  0.65320  Biso   1.000  C
  C16      1.0000 0.91560  0.26950  0.67680  Biso   1.000  C
  C17      1.0000 0.95570  0.15830  0.70050  Biso   1.000  C
  C18      1.0000 0.92030  0.08820  0.64970  Biso   1.000  C
  H9       1.0000 0.87620  0.11050  0.59930  Biso   1.000  H
  C19      1.0000 0.95040  0.98620  0.67370  Biso   1.000  C
  H10      1.0000 0.92460  0.94030  0.64030  Biso   1.000  H
  C20      1.0000 0.01860  0.95260  0.74710  Biso   1.000  C
  H11      1.0000 0.03910  0.88380  0.76330  Biso   1.000  H
  C21      1.0000 0.05690  0.02100  0.79700  Biso   1.000  C
  H12      1.0000 0.10340  0.99750  0.84640  Biso   1.000  H
  C22      1.0000 0.02670  0.12370  0.77430  Biso   1.000  C
  C23      1.0000 0.07270  0.19310  0.83180  Biso   1.000  C
  C24      1.0000 0.17840  0.24890  0.79090  Biso   1.000  C
  C25      1.0000 0.24070  0.24050  0.69970  Biso   1.000  C
  H13      1.0000 0.21630  0.19790  0.66210  Biso   1.000  H
  C26      1.0000 0.33850  0.29460  0.66430  Biso   1.000  C
  H14      1.0000 0.37550  0.29070  0.60300  Biso   1.000  H
  C27      1.0000 0.38060  0.35450  0.72090  Biso   1.000  C
  C28      1.0000 0.32080  0.36270  0.81220  Biso   1.000  C
  H15      1.0000 0.34810  0.40330  0.85020  Biso   1.000  H
  C29      1.0000 0.22050  0.31030  0.84670  Biso   1.000  C
  H16      1.0000 0.18100  0.31630  0.90760  Biso   1.000  H
  C30      1.0000 0.49050  0.41160  0.68430  Biso   1.000  C
  Ag4      1.0000 0.22005  0.49605  0.29456  Biso   1.000  Ag
  Ag5      1.0000 0.34475  0.48841  0.46251  Biso   1.000  Ag
  Ag6      1.0000 0.97553  0.58475  0.43662  Biso   1.000  Ag
  O11      1.0000 0.25940  0.34920  0.45690  Biso   1.000  O
  O12      1.0000 0.31930  0.32470  0.30780  Biso   1.000  O
  O13      1.0000 0.58780  0.12100  0.19490  Biso   1.000  O
  O14      1.0000 0.87490  0.45930  0.42680  Biso   1.000  O
  O15      1.0000 0.97790  0.44750  0.28290  Biso   1.000  O
  O16      1.0000 0.07830  0.70830  0.40490  Biso   1.000  O
  O17      1.0000 0.11860  0.66650  0.25850  Biso   1.000  O
  O18      1.0000 0.97020  0.80230  0.08780  Biso   1.000  O
  O19      1.0000 0.44370  0.56050  0.26210  Biso   1.000  O
  O20      1.0000 0.49370  0.57370  0.40010  Biso   1.000  O
  C31      1.0000 0.30430  0.29340  0.38680  Biso   1.000  C
  C32      1.0000 0.34520  0.17920  0.39910  Biso   1.000  C
  C33      1.0000 0.26000  0.13610  0.46310  Biso   1.000  C
  H17      1.0000 0.17960  0.17840  0.50040  Biso   1.000  H
  C34      1.0000 0.29450  0.03000  0.47160  Biso   1.000  C
  H18      1.0000 0.23690  0.00160  0.51450  Biso   1.000  H
  C35      1.0000 0.41310  0.96700  0.41680  Biso   1.000  C
  H19      1.0000 0.43610  0.89600  0.42290  Biso   1.000  H
  C36      1.0000 0.49810  0.00910  0.35290  Biso   1.000  C
  H20      1.0000 0.57800  0.96590  0.31580  Biso   1.000  H
  C37      1.0000 0.46630  0.11510  0.34300  Biso   1.000  C
  C38      1.0000 0.56360  0.15470  0.27160  Biso   1.000  C
  C39      1.0000 0.64040  0.22870  0.29430  Biso   1.000  C
  C40      1.0000 0.70220  0.28030  0.22540  Biso   1.000  C
  H21      1.0000 0.68900  0.27220  0.16670  Biso   1.000  H
  C41      1.0000 0.78330  0.34370  0.24230  Biso   1.000  C
  H22      1.0000 0.82350  0.37830  0.19530  Biso   1.000  H
  C42      1.0000 0.80500  0.35600  0.33010  Biso   1.000  C
  C43      1.0000 0.74370  0.30420  0.39960  Biso   1.000  C
  H23      1.0000 0.75770  0.31190  0.45820  Biso   1.000  H
  C44      1.0000 0.66190  0.24110  0.38230  Biso   1.000  C
  H24      1.0000 0.62120  0.20680  0.42930  Biso   1.000  H
  C45      1.0000 0.89420  0.42560  0.34680  Biso   1.000  C
  C46      1.0000 0.08440  0.73050  0.32320  Biso   1.000  C
  C47      1.0000 0.04430  0.84170  0.29950  Biso   1.000  C
  C48      1.0000 0.07970  0.91180  0.35030  Biso   1.000  C
  H25      1.0000 0.12380  0.88950  0.40070  Biso   1.000  H
  C49      1.0000 0.04960  0.01380  0.32630  Biso   1.000  C
  H26      1.0000 0.07540  0.05970  0.35970  Biso   1.000  H
  C50      1.0000 0.98140  0.04740  0.25290  Biso   1.000  C
  H27      1.0000 0.96090  0.11620  0.23670  Biso   1.000  H
  C51      1.0000 0.94310  0.97900  0.20300  Biso   1.000  C
  H28      1.0000 0.89660  0.00250  0.15360  Biso   1.000  H
  C52      1.0000 0.97330  0.87630  0.22570  Biso   1.000  C
  C53      1.0000 0.92730  0.80690  0.16820  Biso   1.000  C
  C54      1.0000 0.82160  0.75110  0.20910  Biso   1.000  C
  C55      1.0000 0.75930  0.75950  0.30030  Biso   1.000  C
  H29      1.0000 0.78370  0.80210  0.33790  Biso   1.000  H
  C56      1.0000 0.66150  0.70540  0.33570  Biso   1.000  C
  H30      1.0000 0.62450  0.70930  0.39700  Biso   1.000  H
  C57      1.0000 0.61940  0.64550  0.27910  Biso   1.000  C
  C58      1.0000 0.67920  0.63730  0.18780  Biso   1.000  C
  H31      1.0000 0.65190  0.59670  0.14980  Biso   1.000  H
  C59      1.0000 0.77950  0.68970  0.15330  Biso   1.000  C
  H32      1.0000 0.81900  0.68370  0.09240  Biso   1.000  H
  C60      1.0000 0.50950  0.58840  0.31570  Biso   1.000  C
