data_image0
_cell_length_a       11.927
_cell_length_b       14.1906
_cell_length_c       24.61
_cell_angle_alpha    90
_cell_angle_beta     93.059
_cell_angle_gamma    90

_symmetry_space_group_name_H-M    "P 1"
_symmetry_int_tables_number       1

loop_
  _symmetry_equiv_pos_as_xyz
  'x, y, z'

loop_
  _atom_site_label
  _atom_site_occupancy
  _atom_site_fract_x
  _atom_site_fract_y
  _atom_site_fract_z
  _atom_site_thermal_displace_type
  _atom_site_B_iso_or_equiv
  _atom_site_type_symbol
  O1       1.0000 0.86228  0.74153  0.70347  Biso   1.000  O
  O2       1.0000 0.80504  0.87740  0.73803  Biso   1.000  O
  O3       1.0000 0.78830  0.88600  0.60397  Biso   1.000  O
  O4       1.0000 0.70732  0.75287  0.57573  Biso   1.000  O
  O5       1.0000 0.73147  0.94383  0.96110  Biso   1.000  O
  N1       1.0000 0.39311  0.82274  0.02360  Biso   1.000  N
  N2       1.0000 0.91160  0.73991  0.81680  Biso   1.000  N
  N3       1.0000 0.68612  0.79267  0.93782  Biso   1.000  N
  H1       1.0000 0.64140  0.74540  0.94480  Biso   1.000  H
  C1       1.0000 0.76480  0.77781  0.89830  Biso   1.000  C
  C2       1.0000 0.58650  0.92583  0.05140  Biso   1.000  C
  H2       1.0000 0.65130  0.96260  0.06050  Biso   1.000  H
  C3       1.0000 0.73239  0.81378  0.61158  Biso   1.000  C
  C4       1.0000 0.79210  0.80835  0.70730  Biso   1.000  C
  C5       1.0000 0.49790  0.92380  0.08500  Biso   1.000  C
  H3       1.0000 0.50210  0.95760  0.11840  Biso   1.000  H
  C6       1.0000 0.57879  0.87293  0.00390  Biso   1.000  C
  C7       1.0000 0.81460  0.69253  0.81978  Biso   1.000  C
  H4       1.0000 0.79650  0.64580  0.79310  Biso   1.000  H
  C8       1.0000 0.48060  0.82321  0.99149  Biso   1.000  C
  H5       1.0000 0.47500  0.78780  0.95870  Biso   1.000  H
  C9       1.0000 0.93610  0.80483  0.85540  Biso   1.000  C
  H6       1.0000 0.00530  0.83770  0.85440  Biso   1.000  H
  C10      1.0000 0.68750  0.79885  0.66825  Biso   1.000  C
  C11      1.0000 0.74060  0.70842  0.85943  Biso   1.000  C
  H7       1.0000 0.67340  0.67260  0.86040  Biso   1.000  H
  C12      1.0000 0.67310  0.87357  0.96610  Biso   1.000  C
  C13      1.0000 0.40300  0.87246  0.07008  Biso   1.000  C
  H8       1.0000 0.34230  0.87220  0.09360  Biso   1.000  H
  C14      1.0000 0.60240  0.87700  0.67796  Biso   1.000  C
  H9       1.0000 0.63930  0.93850  0.67600  Biso   1.000  H
  H10      1.0000 0.57250  0.86890  0.71400  Biso   1.000  H
  H11      1.0000 0.54070  0.87350  0.65010  Biso   1.000  H
  C15      1.0000 0.86590  0.82607  0.89631  Biso   1.000  C
  H12      1.0000 0.88610  0.87280  0.92270  Biso   1.000  H
  C16      1.0000 0.63330  0.70260  0.67456  Biso   1.000  C
  H13      1.0000 0.56880  0.69660  0.64840  Biso   1.000  H
  H14      1.0000 0.60790  0.69610  0.71160  Biso   1.000  H
  H15      1.0000 0.68820  0.65310  0.66780  Biso   1.000  H
  O6       1.0000 0.13772  0.74153  0.79653  Biso   1.000  O
  O7       1.0000 0.19496  0.87740  0.76197  Biso   1.000  O
  O8       1.0000 0.21170  0.88600  0.89603  Biso   1.000  O
  O9       1.0000 0.29268  0.75287  0.92427  Biso   1.000  O
  O10      1.0000 0.26853  0.94383  0.53890  Biso   1.000  O
  N4       1.0000 0.60689  0.82274  0.47640  Biso   1.000  N
  N5       1.0000 0.08840  0.73991  0.68320  Biso   1.000  N
  N6       1.0000 0.31388  0.79267  0.56218  Biso   1.000  N
  H16      1.0000 0.35860  0.74540  0.55520  Biso   1.000  H
  C17      1.0000 0.23520  0.77781  0.60170  Biso   1.000  C
  C18      1.0000 0.41350  0.92583  0.44860  Biso   1.000  C
  H17      1.0000 0.34870  0.96260  0.43950  Biso   1.000  H
  C19      1.0000 0.26761  0.81378  0.88842  Biso   1.000  C
  C20      1.0000 0.20790  0.80835  0.79270  Biso   1.000  C
  C21      1.0000 0.50210  0.92380  0.41500  Biso   1.000  C
  H18      1.0000 0.49790  0.95760  0.38160  Biso   1.000  H
  C22      1.0000 0.42121  0.87293  0.49610  Biso   1.000  C
  C23      1.0000 0.18540  0.69253  0.68022  Biso   1.000  C
  H19      1.0000 0.20350  0.64580  0.70690  Biso   1.000  H
  C24      1.0000 0.51940  0.82321  0.50851  Biso   1.000  C
  H20      1.0000 0.52500  0.78780  0.54130  Biso   1.000  H
  C25      1.0000 0.06390  0.80483  0.64460  Biso   1.000  C
  H21      1.0000 0.99470  0.83770  0.64560  Biso   1.000  H
  C26      1.0000 0.31250  0.79885  0.83175  Biso   1.000  C
  C27      1.0000 0.25940  0.70842  0.64057  Biso   1.000  C
  H22      1.0000 0.32660  0.67260  0.63960  Biso   1.000  H
  C28      1.0000 0.32690  0.87357  0.53390  Biso   1.000  C
  C29      1.0000 0.59700  0.87246  0.42992  Biso   1.000  C
  H23      1.0000 0.65770  0.87220  0.40640  Biso   1.000  H
  C30      1.0000 0.39760  0.87700  0.82204  Biso   1.000  C
  H24      1.0000 0.36070  0.93850  0.82400  Biso   1.000  H
  H25      1.0000 0.42750  0.86890  0.78600  Biso   1.000  H
  H26      1.0000 0.45930  0.87350  0.84990  Biso   1.000  H
  C31      1.0000 0.13410  0.82607  0.60369  Biso   1.000  C
  H27      1.0000 0.11390  0.87280  0.57730  Biso   1.000  H
  C32      1.0000 0.36670  0.70260  0.82544  Biso   1.000  C
  H28      1.0000 0.43120  0.69660  0.85160  Biso   1.000  H
  H29      1.0000 0.39210  0.69610  0.78840  Biso   1.000  H
  H30      1.0000 0.31180  0.65310  0.83220  Biso   1.000  H
  O11      1.0000 0.63772  0.75847  0.29653  Biso   1.000  O
  O12      1.0000 0.69496  0.62260  0.26197  Biso   1.000  O
  O13      1.0000 0.71170  0.61400  0.39603  Biso   1.000  O
  O14      1.0000 0.79268  0.74713  0.42427  Biso   1.000  O
  O15      1.0000 0.76853  0.55617  0.03890  Biso   1.000  O
  N7       1.0000 0.10689  0.67726  0.97640  Biso   1.000  N
  N8       1.0000 0.58840  0.76009  0.18320  Biso   1.000  N
  N9       1.0000 0.81388  0.70733  0.06218  Biso   1.000  N
  H31      1.0000 0.85860  0.75460  0.05520  Biso   1.000  H
  C33      1.0000 0.73520  0.72219  0.10170  Biso   1.000  C
  C34      1.0000 0.91350  0.57417  0.94860  Biso   1.000  C
  H32      1.0000 0.84870  0.53740  0.93950  Biso   1.000  H
  C35      1.0000 0.76761  0.68622  0.38842  Biso   1.000  C
  C36      1.0000 0.70790  0.69165  0.29270  Biso   1.000  C
  C37      1.0000 0.00210  0.57620  0.91500  Biso   1.000  C
  H33      1.0000 0.99790  0.54240  0.88160  Biso   1.000  H
  C38      1.0000 0.92121  0.62707  0.99610  Biso   1.000  C
  C39      1.0000 0.68540  0.80747  0.18022  Biso   1.000  C
  H34      1.0000 0.70350  0.85420  0.20690  Biso   1.000  H
  C40      1.0000 0.01940  0.67679  0.00851  Biso   1.000  C
  H35      1.0000 0.02500  0.71220  0.04130  Biso   1.000  H
  C41      1.0000 0.56390  0.69517  0.14460  Biso   1.000  C
  H36      1.0000 0.49470  0.66230  0.14560  Biso   1.000  H
  C42      1.0000 0.81250  0.70115  0.33175  Biso   1.000  C
  C43      1.0000 0.75940  0.79158  0.14057  Biso   1.000  C
  H37      1.0000 0.82660  0.82740  0.13960  Biso   1.000  H
  C44      1.0000 0.82690  0.62643  0.03390  Biso   1.000  C
  C45      1.0000 0.09700  0.62754  0.92992  Biso   1.000  C
  H38      1.0000 0.15770  0.62780  0.90640  Biso   1.000  H
  C46      1.0000 0.89760  0.62300  0.32204  Biso   1.000  C
  H39      1.0000 0.86070  0.56150  0.32400  Biso   1.000  H
  H40      1.0000 0.92750  0.63110  0.28600  Biso   1.000  H
  H41      1.0000 0.95930  0.62650  0.34990  Biso   1.000  H
  C47      1.0000 0.63410  0.67393  0.10369  Biso   1.000  C
  H42      1.0000 0.61390  0.62720  0.07730  Biso   1.000  H
  C48      1.0000 0.86670  0.79740  0.32544  Biso   1.000  C
  H43      1.0000 0.93120  0.80340  0.35160  Biso   1.000  H
  H44      1.0000 0.89210  0.80390  0.28840  Biso   1.000  H
  H45      1.0000 0.81180  0.84690  0.33220  Biso   1.000  H
  O16      1.0000 0.36228  0.75847  0.20347  Biso   1.000  O
  O17      1.0000 0.30504  0.62260  0.23803  Biso   1.000  O
  O18      1.0000 0.28830  0.61400  0.10397  Biso   1.000  O
  O19      1.0000 0.20732  0.74713  0.07573  Biso   1.000  O
  O20      1.0000 0.23147  0.55617  0.46110  Biso   1.000  O
  N10      1.0000 0.89311  0.67726  0.52360  Biso   1.000  N
  N11      1.0000 0.41160  0.76009  0.31680  Biso   1.000  N
  N12      1.0000 0.18612  0.70733  0.43782  Biso   1.000  N
  H46      1.0000 0.14140  0.75460  0.44480  Biso   1.000  H
  C49      1.0000 0.26480  0.72219  0.39830  Biso   1.000  C
  C50      1.0000 0.08650  0.57417  0.55140  Biso   1.000  C
  H47      1.0000 0.15130  0.53740  0.56050  Biso   1.000  H
  C51      1.0000 0.23239  0.68622  0.11158  Biso   1.000  C
  C52      1.0000 0.29210  0.69165  0.20730  Biso   1.000  C
  C53      1.0000 0.99790  0.57620  0.58500  Biso   1.000  C
  H48      1.0000 0.00210  0.54240  0.61840  Biso   1.000  H
  C54      1.0000 0.07879  0.62707  0.50390  Biso   1.000  C
  C55      1.0000 0.31460  0.80747  0.31978  Biso   1.000  C
  H49      1.0000 0.29650  0.85420  0.29310  Biso   1.000  H
  C56      1.0000 0.98060  0.67679  0.49149  Biso   1.000  C
  H50      1.0000 0.97500  0.71220  0.45870  Biso   1.000  H
  C57      1.0000 0.43610  0.69517  0.35540  Biso   1.000  C
  H51      1.0000 0.50530  0.66230  0.35440  Biso   1.000  H
  C58      1.0000 0.18750  0.70115  0.16825  Biso   1.000  C
  C59      1.0000 0.24060  0.79158  0.35943  Biso   1.000  C
  H52      1.0000 0.17340  0.82740  0.36040  Biso   1.000  H
  C60      1.0000 0.17310  0.62643  0.46610  Biso   1.000  C
  C61      1.0000 0.90300  0.62754  0.57008  Biso   1.000  C
  H53      1.0000 0.84230  0.62780  0.59360  Biso   1.000  H
  C62      1.0000 0.10240  0.62300  0.17796  Biso   1.000  C
  H54      1.0000 0.13930  0.56150  0.17600  Biso   1.000  H
  H55      1.0000 0.07250  0.63110  0.21400  Biso   1.000  H
  H56      1.0000 0.04070  0.62650  0.15010  Biso   1.000  H
  C63      1.0000 0.36590  0.67393  0.39631  Biso   1.000  C
  H57      1.0000 0.38610  0.62720  0.42270  Biso   1.000  H
  C64      1.0000 0.13330  0.79740  0.17456  Biso   1.000  C
  H58      1.0000 0.06880  0.80340  0.14840  Biso   1.000  H
  H59      1.0000 0.10790  0.80390  0.21160  Biso   1.000  H
  H60      1.0000 0.18820  0.84690  0.16780  Biso   1.000  H
  Cu1      1.0000 0.00000  0.73079  0.75000  Biso   1.000  Cu
  Cu2      1.0000 0.50000  0.76921  0.25000  Biso   1.000  Cu
  Cu3      1.0000 0.75000  0.75000  0.50000  Biso   1.000  Cu
  Cu4      1.0000 0.25000  0.75000  0.00000  Biso   1.000  Cu
  O21      1.0000 0.36228  0.24153  0.70347  Biso   1.000  O
  O22      1.0000 0.30504  0.37740  0.73803  Biso   1.000  O
  O23      1.0000 0.28830  0.38600  0.60397  Biso   1.000  O
  O24      1.0000 0.20732  0.25287  0.57573  Biso   1.000  O
  O25      1.0000 0.23147  0.44383  0.96110  Biso   1.000  O
  N13      1.0000 0.89311  0.32274  0.02360  Biso   1.000  N
  N14      1.0000 0.41160  0.23991  0.81680  Biso   1.000  N
  N15      1.0000 0.18612  0.29267  0.93782  Biso   1.000  N
  H61      1.0000 0.14140  0.24540  0.94480  Biso   1.000  H
  C65      1.0000 0.26480  0.27781  0.89830  Biso   1.000  C
  C66      1.0000 0.08650  0.42583  0.05140  Biso   1.000  C
  H62      1.0000 0.15130  0.46260  0.06050  Biso   1.000  H
  C67      1.0000 0.23239  0.31378  0.61158  Biso   1.000  C
  C68      1.0000 0.29210  0.30835  0.70730  Biso   1.000  C
  C69      1.0000 0.99790  0.42380  0.08500  Biso   1.000  C
  H63      1.0000 0.00210  0.45760  0.11840  Biso   1.000  H
  C70      1.0000 0.07879  0.37293  0.00390  Biso   1.000  C
  C71      1.0000 0.31460  0.19253  0.81978  Biso   1.000  C
  H64      1.0000 0.29650  0.14580  0.79310  Biso   1.000  H
  C72      1.0000 0.98060  0.32321  0.99149  Biso   1.000  C
  H65      1.0000 0.97500  0.28780  0.95870  Biso   1.000  H
  C73      1.0000 0.43610  0.30483  0.85540  Biso   1.000  C
  H66      1.0000 0.50530  0.33770  0.85440  Biso   1.000  H
  C74      1.0000 0.18750  0.29885  0.66825  Biso   1.000  C
  C75      1.0000 0.24060  0.20842  0.85943  Biso   1.000  C
  H67      1.0000 0.17340  0.17260  0.86040  Biso   1.000  H
  C76      1.0000 0.17310  0.37357  0.96610  Biso   1.000  C
  C77      1.0000 0.90300  0.37246  0.07008  Biso   1.000  C
  H68      1.0000 0.84230  0.37220  0.09360  Biso   1.000  H
  C78      1.0000 0.10240  0.37700  0.67796  Biso   1.000  C
  H69      1.0000 0.13930  0.43850  0.67600  Biso   1.000  H
  H70      1.0000 0.07250  0.36890  0.71400  Biso   1.000  H
  H71      1.0000 0.04070  0.37350  0.65010  Biso   1.000  H
  C79      1.0000 0.36590  0.32607  0.89631  Biso   1.000  C
  H72      1.0000 0.38610  0.37280  0.92270  Biso   1.000  H
  C80      1.0000 0.13330  0.20260  0.67456  Biso   1.000  C
  H73      1.0000 0.06880  0.19660  0.64840  Biso   1.000  H
  H74      1.0000 0.10790  0.19610  0.71160  Biso   1.000  H
  H75      1.0000 0.18820  0.15310  0.66780  Biso   1.000  H
  O26      1.0000 0.63772  0.24153  0.79653  Biso   1.000  O
  O27      1.0000 0.69496  0.37740  0.76197  Biso   1.000  O
  O28      1.0000 0.71170  0.38600  0.89603  Biso   1.000  O
  O29      1.0000 0.79268  0.25287  0.92427  Biso   1.000  O
  O30      1.0000 0.76853  0.44383  0.53890  Biso   1.000  O
  N16      1.0000 0.10689  0.32274  0.47640  Biso   1.000  N
  N17      1.0000 0.58840  0.23991  0.68320  Biso   1.000  N
  N18      1.0000 0.81388  0.29267  0.56218  Biso   1.000  N
  H76      1.0000 0.85860  0.24540  0.55520  Biso   1.000  H
  C81      1.0000 0.73520  0.27781  0.60170  Biso   1.000  C
  C82      1.0000 0.91350  0.42583  0.44860  Biso   1.000  C
  H77      1.0000 0.84870  0.46260  0.43950  Biso   1.000  H
  C83      1.0000 0.76761  0.31378  0.88842  Biso   1.000  C
  C84      1.0000 0.70790  0.30835  0.79270  Biso   1.000  C
  C85      1.0000 0.00210  0.42380  0.41500  Biso   1.000  C
  H78      1.0000 0.99790  0.45760  0.38160  Biso   1.000  H
  C86      1.0000 0.92121  0.37293  0.49610  Biso   1.000  C
  C87      1.0000 0.68540  0.19253  0.68022  Biso   1.000  C
  H79      1.0000 0.70350  0.14580  0.70690  Biso   1.000  H
  C88      1.0000 0.01940  0.32321  0.50851  Biso   1.000  C
  H80      1.0000 0.02500  0.28780  0.54130  Biso   1.000  H
  C89      1.0000 0.56390  0.30483  0.64460  Biso   1.000  C
  H81      1.0000 0.49470  0.33770  0.64560  Biso   1.000  H
  C90      1.0000 0.81250  0.29885  0.83175  Biso   1.000  C
  C91      1.0000 0.75940  0.20842  0.64057  Biso   1.000  C
  H82      1.0000 0.82660  0.17260  0.63960  Biso   1.000  H
  C92      1.0000 0.82690  0.37357  0.53390  Biso   1.000  C
  C93      1.0000 0.09700  0.37246  0.42992  Biso   1.000  C
  H83      1.0000 0.15770  0.37220  0.40640  Biso   1.000  H
  C94      1.0000 0.89760  0.37700  0.82204  Biso   1.000  C
  H84      1.0000 0.86070  0.43850  0.82400  Biso   1.000  H
  H85      1.0000 0.92750  0.36890  0.78600  Biso   1.000  H
  H86      1.0000 0.95930  0.37350  0.84990  Biso   1.000  H
  C95      1.0000 0.63410  0.32607  0.60369  Biso   1.000  C
  H87      1.0000 0.61390  0.37280  0.57730  Biso   1.000  H
  C96      1.0000 0.86670  0.20260  0.82544  Biso   1.000  C
  H88      1.0000 0.93120  0.19660  0.85160  Biso   1.000  H
  H89      1.0000 0.89210  0.19610  0.78840  Biso   1.000  H
  H90      1.0000 0.81180  0.15310  0.83220  Biso   1.000  H
  O31      1.0000 0.13772  0.25847  0.29653  Biso   1.000  O
  O32      1.0000 0.19496  0.12260  0.26197  Biso   1.000  O
  O33      1.0000 0.21170  0.11400  0.39603  Biso   1.000  O
  O34      1.0000 0.29268  0.24713  0.42427  Biso   1.000  O
  O35      1.0000 0.26853  0.05617  0.03890  Biso   1.000  O
  N19      1.0000 0.60689  0.17726  0.97640  Biso   1.000  N
  N20      1.0000 0.08840  0.26009  0.18320  Biso   1.000  N
  N21      1.0000 0.31388  0.20733  0.06218  Biso   1.000  N
  H91      1.0000 0.35860  0.25460  0.05520  Biso   1.000  H
  C97      1.0000 0.23520  0.22219  0.10170  Biso   1.000  C
  C98      1.0000 0.41350  0.07417  0.94860  Biso   1.000  C
  H92      1.0000 0.34870  0.03740  0.93950  Biso   1.000  H
  C99      1.0000 0.26761  0.18622  0.38842  Biso   1.000  C
  C100     1.0000 0.20790  0.19165  0.29270  Biso   1.000  C
  C101     1.0000 0.50210  0.07620  0.91500  Biso   1.000  C
  H93      1.0000 0.49790  0.04240  0.88160  Biso   1.000  H
  C102     1.0000 0.42121  0.12707  0.99610  Biso   1.000  C
  C103     1.0000 0.18540  0.30747  0.18022  Biso   1.000  C
  H94      1.0000 0.20350  0.35420  0.20690  Biso   1.000  H
  C104     1.0000 0.51940  0.17679  0.00851  Biso   1.000  C
  H95      1.0000 0.52500  0.21220  0.04130  Biso   1.000  H
  C105     1.0000 0.06390  0.19517  0.14460  Biso   1.000  C
  H96      1.0000 0.99470  0.16230  0.14560  Biso   1.000  H
  C106     1.0000 0.31250  0.20115  0.33175  Biso   1.000  C
  C107     1.0000 0.25940  0.29158  0.14057  Biso   1.000  C
  H97      1.0000 0.32660  0.32740  0.13960  Biso   1.000  H
  C108     1.0000 0.32690  0.12643  0.03390  Biso   1.000  C
  C109     1.0000 0.59700  0.12754  0.92992  Biso   1.000  C
  H98      1.0000 0.65770  0.12780  0.90640  Biso   1.000  H
  C110     1.0000 0.39760  0.12300  0.32204  Biso   1.000  C
  H99      1.0000 0.36070  0.06150  0.32400  Biso   1.000  H
  H100     1.0000 0.42750  0.13110  0.28600  Biso   1.000  H
  H101     1.0000 0.45930  0.12650  0.34990  Biso   1.000  H
  C111     1.0000 0.13410  0.17393  0.10369  Biso   1.000  C
  H102     1.0000 0.11390  0.12720  0.07730  Biso   1.000  H
  C112     1.0000 0.36670  0.29740  0.32544  Biso   1.000  C
  H103     1.0000 0.43120  0.30340  0.35160  Biso   1.000  H
  H104     1.0000 0.39210  0.30390  0.28840  Biso   1.000  H
  H105     1.0000 0.31180  0.34690  0.33220  Biso   1.000  H
  O36      1.0000 0.86228  0.25847  0.20347  Biso   1.000  O
  O37      1.0000 0.80504  0.12260  0.23803  Biso   1.000  O
  O38      1.0000 0.78830  0.11400  0.10397  Biso   1.000  O
  O39      1.0000 0.70732  0.24713  0.07573  Biso   1.000  O
  O40      1.0000 0.73147  0.05617  0.46110  Biso   1.000  O
  N22      1.0000 0.39311  0.17726  0.52360  Biso   1.000  N
  N23      1.0000 0.91160  0.26009  0.31680  Biso   1.000  N
  N24      1.0000 0.68612  0.20733  0.43782  Biso   1.000  N
  H106     1.0000 0.64140  0.25460  0.44480  Biso   1.000  H
  C113     1.0000 0.76480  0.22219  0.39830  Biso   1.000  C
  C114     1.0000 0.58650  0.07417  0.55140  Biso   1.000  C
  H107     1.0000 0.65130  0.03740  0.56050  Biso   1.000  H
  C115     1.0000 0.73239  0.18622  0.11158  Biso   1.000  C
  C116     1.0000 0.79210  0.19165  0.20730  Biso   1.000  C
  C117     1.0000 0.49790  0.07620  0.58500  Biso   1.000  C
  H108     1.0000 0.50210  0.04240  0.61840  Biso   1.000  H
  C118     1.0000 0.57879  0.12707  0.50390  Biso   1.000  C
  C119     1.0000 0.81460  0.30747  0.31978  Biso   1.000  C
  H109     1.0000 0.79650  0.35420  0.29310  Biso   1.000  H
  C120     1.0000 0.48060  0.17679  0.49149  Biso   1.000  C
  H110     1.0000 0.47500  0.21220  0.45870  Biso   1.000  H
  C121     1.0000 0.93610  0.19517  0.35540  Biso   1.000  C
  H111     1.0000 0.00530  0.16230  0.35440  Biso   1.000  H
  C122     1.0000 0.68750  0.20115  0.16825  Biso   1.000  C
  C123     1.0000 0.74060  0.29158  0.35943  Biso   1.000  C
  H112     1.0000 0.67340  0.32740  0.36040  Biso   1.000  H
  C124     1.0000 0.67310  0.12643  0.46610  Biso   1.000  C
  C125     1.0000 0.40300  0.12754  0.57008  Biso   1.000  C
  H113     1.0000 0.34230  0.12780  0.59360  Biso   1.000  H
  C126     1.0000 0.60240  0.12300  0.17796  Biso   1.000  C
  H114     1.0000 0.63930  0.06150  0.17600  Biso   1.000  H
  H115     1.0000 0.57250  0.13110  0.21400  Biso   1.000  H
  H116     1.0000 0.54070  0.12650  0.15010  Biso   1.000  H
  C127     1.0000 0.86590  0.17393  0.39631  Biso   1.000  C
  H117     1.0000 0.88610  0.12720  0.42270  Biso   1.000  H
  C128     1.0000 0.63330  0.29740  0.17456  Biso   1.000  C
  H118     1.0000 0.56880  0.30340  0.14840  Biso   1.000  H
  H119     1.0000 0.60790  0.30390  0.21160  Biso   1.000  H
  H120     1.0000 0.68820  0.34690  0.16780  Biso   1.000  H
  Cu5      1.0000 0.50000  0.23079  0.75000  Biso   1.000  Cu
  Cu6      1.0000 0.00000  0.26921  0.25000  Biso   1.000  Cu
  Cu7      1.0000 0.25000  0.25000  0.50000  Biso   1.000  Cu
  Cu8      1.0000 0.75000  0.25000  0.00000  Biso   1.000  Cu
