data_image0
_cell_length_a       13.0248
_cell_length_b       20.9011
_cell_length_c       23.109
_cell_angle_alpha    90
_cell_angle_beta     102.207
_cell_angle_gamma    90

_symmetry_space_group_name_H-M    "P 1"
_symmetry_int_tables_number       1

loop_
  _symmetry_equiv_pos_as_xyz
  'x, y, z'

loop_
  _atom_site_label
  _atom_site_occupancy
  _atom_site_fract_x
  _atom_site_fract_y
  _atom_site_fract_z
  _atom_site_thermal_displace_type
  _atom_site_B_iso_or_equiv
  _atom_site_type_symbol
  Cu1      1.0000 0.01283  0.22531  0.13887  Biso   1.000  Cu
  Cu2      1.0000 0.09047  0.09345  0.13047  Biso   1.000  Cu
  N1       1.0000 0.79850  0.00390  0.13960  Biso   1.000  N
  C1       1.0000 0.89900  0.01300  0.13810  Biso   1.000  C
  H1       1.0000 0.94090  0.97740  0.13630  Biso   1.000  H
  N2       1.0000 0.94270  0.07160  0.13913  Biso   1.000  N
  C2       1.0000 0.86830  0.11630  0.14330  Biso   1.000  C
  C3       1.0000 0.75630  0.11440  0.14120  Biso   1.000  C
  C4       1.0000 0.71680  0.05160  0.13850  Biso   1.000  C
  N3       1.0000 0.61450  0.03890  0.13470  Biso   1.000  N
  H2       1.0000 0.57050  0.06970  0.13390  Biso   1.000  H
  H3       1.0000 0.59290  0.99990  0.13320  Biso   1.000  H
  C5       1.0000 0.78730  0.06850  0.14560  Biso   1.000  C
  C6       1.0000 0.69260  0.09830  0.14460  Biso   1.000  C
  N4       1.0000 0.60160  0.06940  0.14310  Biso   1.000  N
  H4       1.0000 0.59820  0.02830  0.14270  Biso   1.000  H
  H5       1.0000 0.54600  0.09170  0.14260  Biso   1.000  H
  N5       1.0000 0.70050  0.16940  0.14450  Biso   1.000  N
  C7       1.0000 0.78550  0.20590  0.14800  Biso   1.000  C
  H6       1.0000 0.77930  0.25000  0.15060  Biso   1.000  H
  N6       1.0000 0.88000  0.18010  0.14779  Biso   1.000  N
  N7       1.0000 0.23490  0.05850  0.31030  Biso   1.000  N
  C8       1.0000 0.18790  0.05240  0.25370  Biso   1.000  C
  H7       1.0000 0.19160  0.01230  0.23680  Biso   1.000  H
  N8       1.0000 0.13590  0.09760  0.21837  Biso   1.000  N
  C9       1.0000 0.13330  0.15410  0.24600  Biso   1.000  C
  C10      1.0000 0.18260  0.16680  0.30490  Biso   1.000  C
  C11      1.0000 0.23670  0.11680  0.33760  Biso   1.000  C
  N9       1.0000 0.28940  0.12340  0.39345  Biso   1.000  N
  H8       1.0000 0.32190  0.09120  0.41200  Biso   1.000  H
  H9       1.0000 0.29080  0.15990  0.41080  Biso   1.000  H
  N10      1.0000 0.16790  0.22940  0.31900  Biso   1.000  N
  C12      1.0000 0.11050  0.25130  0.26770  Biso   1.000  C
  H10      1.0000 0.08820  0.29360  0.26320  Biso   1.000  H
  N11      1.0000 0.08670  0.20880  0.22276  Biso   1.000  N
  N12      1.0000 0.40750  0.14150  0.12031  Biso   1.000  N
  C13      1.0000 0.32020  0.11200  0.12510  Biso   1.000  C
  H11      1.0000 0.32390  0.06770  0.12890  Biso   1.000  H
  N13      1.0000 0.22650  0.13890  0.12488  Biso   1.000  N
  C14      1.0000 0.22930  0.20380  0.11930  Biso   1.000  C
  C15      1.0000 0.31610  0.24040  0.11190  Biso   1.000  C
  C16      1.0000 0.40810  0.20790  0.11430  Biso   1.000  C
  N14      1.0000 0.49920  0.24020  0.11180  Biso   1.000  N
  H12      1.0000 0.49870  0.28120  0.10870  Biso   1.000  H
  H13      1.0000 0.55670  0.21930  0.11330  Biso   1.000  H
  N15      1.0000 0.29280  0.30430  0.10746  Biso   1.000  N
  C17      1.0000 0.19230  0.30340  0.11230  Biso   1.000  C
  H14      1.0000 0.15300  0.34080  0.11070  Biso   1.000  H
  N16      1.0000 0.15040  0.24540  0.11976  Biso   1.000  N
  N17      1.0000 0.86100  0.25420  0.95623  Biso   1.000  N
  C18      1.0000 0.89500  0.26050  0.01440  Biso   1.000  C
  H15      1.0000 0.87530  0.29750  0.03170  Biso   1.000  H
  N18      1.0000 0.95520  0.21850  0.05061  Biso   1.000  N
  C19      1.0000 0.97850  0.16600  0.02190  Biso   1.000  C
  C20      1.0000 0.94670  0.15420  0.96140  Biso   1.000  C
  C21      1.0000 0.88500  0.20050  0.92780  Biso   1.000  C
  N19      1.0000 0.85020  0.19470  0.86880  Biso   1.000  N
  H16      1.0000 0.81310  0.22470  0.84920  Biso   1.000  H
  H17      1.0000 0.86520  0.16110  0.85080  Biso   1.000  H
  N20      1.0000 0.98540  0.09660  0.94540  Biso   1.000  N
  C22      1.0000 0.03760  0.07690  0.99780  Biso   1.000  C
  H18      1.0000 0.07410  0.03840  0.00190  Biso   1.000  H
  N21      1.0000 0.03640  0.11420  0.04525  Biso   1.000  N
  Cu3      1.0000 0.48717  0.72531  0.36113  Biso   1.000  Cu
  Cu4      1.0000 0.40953  0.59345  0.36953  Biso   1.000  Cu
  N22      1.0000 0.70150  0.50390  0.36040  Biso   1.000  N
  C23      1.0000 0.60100  0.51300  0.36190  Biso   1.000  C
  H19      1.0000 0.55910  0.47740  0.36370  Biso   1.000  H
  N23      1.0000 0.55730  0.57160  0.36087  Biso   1.000  N
  C24      1.0000 0.63170  0.61630  0.35670  Biso   1.000  C
  C25      1.0000 0.74370  0.61440  0.35880  Biso   1.000  C
  C26      1.0000 0.78320  0.55160  0.36150  Biso   1.000  C
  N24      1.0000 0.88550  0.53890  0.36530  Biso   1.000  N
  H20      1.0000 0.92950  0.56970  0.36610  Biso   1.000  H
  H21      1.0000 0.90710  0.49990  0.36680  Biso   1.000  H
  C27      1.0000 0.71270  0.56850  0.35440  Biso   1.000  C
  C28      1.0000 0.80740  0.59830  0.35540  Biso   1.000  C
  N25      1.0000 0.89840  0.56940  0.35690  Biso   1.000  N
  H22      1.0000 0.90180  0.52830  0.35730  Biso   1.000  H
  H23      1.0000 0.95400  0.59170  0.35740  Biso   1.000  H
  N26      1.0000 0.79950  0.66940  0.35550  Biso   1.000  N
  C29      1.0000 0.71450  0.70590  0.35200  Biso   1.000  C
  H24      1.0000 0.72070  0.75000  0.34940  Biso   1.000  H
  N27      1.0000 0.62000  0.68010  0.35221  Biso   1.000  N
  N28      1.0000 0.26510  0.55850  0.18970  Biso   1.000  N
  C30      1.0000 0.31210  0.55240  0.24630  Biso   1.000  C
  H25      1.0000 0.30840  0.51230  0.26320  Biso   1.000  H
  N29      1.0000 0.36410  0.59760  0.28163  Biso   1.000  N
  C31      1.0000 0.36670  0.65410  0.25400  Biso   1.000  C
  C32      1.0000 0.31740  0.66680  0.19510  Biso   1.000  C
  C33      1.0000 0.26330  0.61680  0.16240  Biso   1.000  C
  N30      1.0000 0.21060  0.62340  0.10655  Biso   1.000  N
  H26      1.0000 0.17810  0.59120  0.08800  Biso   1.000  H
  H27      1.0000 0.20920  0.65990  0.08920  Biso   1.000  H
  N31      1.0000 0.33210  0.72940  0.18100  Biso   1.000  N
  C34      1.0000 0.38950  0.75130  0.23230  Biso   1.000  C
  H28      1.0000 0.41180  0.79360  0.23680  Biso   1.000  H
  N32      1.0000 0.41330  0.70880  0.27724  Biso   1.000  N
  N33      1.0000 0.09250  0.64150  0.37969  Biso   1.000  N
  C35      1.0000 0.17980  0.61200  0.37490  Biso   1.000  C
  H29      1.0000 0.17610  0.56770  0.37110  Biso   1.000  H
  N34      1.0000 0.27350  0.63890  0.37512  Biso   1.000  N
  C36      1.0000 0.27070  0.70380  0.38070  Biso   1.000  C
  C37      1.0000 0.18390  0.74040  0.38810  Biso   1.000  C
  C38      1.0000 0.09190  0.70790  0.38570  Biso   1.000  C
  N35      1.0000 0.00080  0.74020  0.38820  Biso   1.000  N
  H30      1.0000 0.00130  0.78120  0.39130  Biso   1.000  H
  H31      1.0000 0.94330  0.71930  0.38670  Biso   1.000  H
  N36      1.0000 0.20720  0.80430  0.39254  Biso   1.000  N
  C39      1.0000 0.30770  0.80340  0.38770  Biso   1.000  C
  H32      1.0000 0.34700  0.84080  0.38930  Biso   1.000  H
  N37      1.0000 0.34960  0.74540  0.38024  Biso   1.000  N
  N38      1.0000 0.63900  0.75420  0.54377  Biso   1.000  N
  C40      1.0000 0.60500  0.76050  0.48560  Biso   1.000  C
  H33      1.0000 0.62470  0.79750  0.46830  Biso   1.000  H
  N39      1.0000 0.54480  0.71850  0.44939  Biso   1.000  N
  C41      1.0000 0.52150  0.66600  0.47810  Biso   1.000  C
  C42      1.0000 0.55330  0.65420  0.53860  Biso   1.000  C
  C43      1.0000 0.61500  0.70050  0.57220  Biso   1.000  C
  N40      1.0000 0.64980  0.69470  0.63120  Biso   1.000  N
  H34      1.0000 0.68690  0.72470  0.65080  Biso   1.000  H
  H35      1.0000 0.63480  0.66110  0.64920  Biso   1.000  H
  N41      1.0000 0.51460  0.59660  0.55460  Biso   1.000  N
  C44      1.0000 0.46240  0.57690  0.50220  Biso   1.000  C
  H36      1.0000 0.42590  0.53840  0.49810  Biso   1.000  H
  N42      1.0000 0.46360  0.61420  0.45475  Biso   1.000  N
  Cu5      1.0000 0.98717  0.77469  0.86113  Biso   1.000  Cu
  Cu6      1.0000 0.90953  0.90655  0.86953  Biso   1.000  Cu
  N43      1.0000 0.20150  0.99610  0.86040  Biso   1.000  N
  C45      1.0000 0.10100  0.98700  0.86190  Biso   1.000  C
  H37      1.0000 0.05910  0.02260  0.86370  Biso   1.000  H
  N44      1.0000 0.05730  0.92840  0.86087  Biso   1.000  N
  C46      1.0000 0.13170  0.88370  0.85670  Biso   1.000  C
  C47      1.0000 0.24370  0.88560  0.85880  Biso   1.000  C
  C48      1.0000 0.28320  0.94840  0.86150  Biso   1.000  C
  N45      1.0000 0.38550  0.96110  0.86530  Biso   1.000  N
  H38      1.0000 0.42950  0.93030  0.86610  Biso   1.000  H
  H39      1.0000 0.40710  0.00010  0.86680  Biso   1.000  H
  C49      1.0000 0.21270  0.93150  0.85440  Biso   1.000  C
  C50      1.0000 0.30740  0.90170  0.85540  Biso   1.000  C
  N46      1.0000 0.39840  0.93060  0.85690  Biso   1.000  N
  H40      1.0000 0.40180  0.97170  0.85730  Biso   1.000  H
  H41      1.0000 0.45400  0.90830  0.85740  Biso   1.000  H
  N47      1.0000 0.29950  0.83060  0.85550  Biso   1.000  N
  C51      1.0000 0.21450  0.79410  0.85200  Biso   1.000  C
  H42      1.0000 0.22070  0.75000  0.84940  Biso   1.000  H
  N48      1.0000 0.12000  0.81990  0.85221  Biso   1.000  N
  N49      1.0000 0.76510  0.94150  0.68970  Biso   1.000  N
  C52      1.0000 0.81210  0.94760  0.74630  Biso   1.000  C
  H43      1.0000 0.80840  0.98770  0.76320  Biso   1.000  H
  N50      1.0000 0.86410  0.90240  0.78163  Biso   1.000  N
  C53      1.0000 0.86670  0.84590  0.75400  Biso   1.000  C
  C54      1.0000 0.81740  0.83320  0.69510  Biso   1.000  C
  C55      1.0000 0.76330  0.88320  0.66240  Biso   1.000  C
  N51      1.0000 0.71060  0.87660  0.60655  Biso   1.000  N
  H44      1.0000 0.67810  0.90880  0.58800  Biso   1.000  H
  H45      1.0000 0.70920  0.84010  0.58920  Biso   1.000  H
  N52      1.0000 0.83210  0.77060  0.68100  Biso   1.000  N
  C56      1.0000 0.88950  0.74870  0.73230  Biso   1.000  C
  H46      1.0000 0.91180  0.70640  0.73680  Biso   1.000  H
  N53      1.0000 0.91330  0.79120  0.77724  Biso   1.000  N
  N54      1.0000 0.59250  0.85850  0.87969  Biso   1.000  N
  C57      1.0000 0.67980  0.88800  0.87490  Biso   1.000  C
  H47      1.0000 0.67610  0.93230  0.87110  Biso   1.000  H
  N55      1.0000 0.77350  0.86110  0.87512  Biso   1.000  N
  C58      1.0000 0.77070  0.79620  0.88070  Biso   1.000  C
  C59      1.0000 0.68390  0.75960  0.88810  Biso   1.000  C
  C60      1.0000 0.59190  0.79210  0.88570  Biso   1.000  C
  N56      1.0000 0.50080  0.75980  0.88820  Biso   1.000  N
  H48      1.0000 0.50130  0.71880  0.89130  Biso   1.000  H
  H49      1.0000 0.44330  0.78070  0.88670  Biso   1.000  H
  N57      1.0000 0.70720  0.69570  0.89254  Biso   1.000  N
  C61      1.0000 0.80770  0.69660  0.88770  Biso   1.000  C
  H50      1.0000 0.84700  0.65920  0.88930  Biso   1.000  H
  N58      1.0000 0.84960  0.75460  0.88024  Biso   1.000  N
  N59      1.0000 0.13900  0.74580  0.04377  Biso   1.000  N
  C62      1.0000 0.10500  0.73950  0.98560  Biso   1.000  C
  H51      1.0000 0.12470  0.70250  0.96830  Biso   1.000  H
  N60      1.0000 0.04480  0.78150  0.94939  Biso   1.000  N
  C63      1.0000 0.02150  0.83400  0.97810  Biso   1.000  C
  C64      1.0000 0.05330  0.84580  0.03860  Biso   1.000  C
  C65      1.0000 0.11500  0.79950  0.07220  Biso   1.000  C
  N61      1.0000 0.14980  0.80530  0.13120  Biso   1.000  N
  H52      1.0000 0.18690  0.77530  0.15080  Biso   1.000  H
  H53      1.0000 0.13480  0.83890  0.14920  Biso   1.000  H
  N62      1.0000 0.01460  0.90340  0.05460  Biso   1.000  N
  C66      1.0000 0.96240  0.92310  0.00220  Biso   1.000  C
  H54      1.0000 0.92590  0.96160  0.99810  Biso   1.000  H
  N63      1.0000 0.96360  0.88580  0.95475  Biso   1.000  N
  Cu7      1.0000 0.51283  0.27469  0.63887  Biso   1.000  Cu
  Cu8      1.0000 0.59047  0.40655  0.63047  Biso   1.000  Cu
  N64      1.0000 0.29850  0.49610  0.63960  Biso   1.000  N
  C67      1.0000 0.39900  0.48700  0.63810  Biso   1.000  C
  H55      1.0000 0.44090  0.52260  0.63630  Biso   1.000  H
  N65      1.0000 0.44270  0.42840  0.63913  Biso   1.000  N
  C68      1.0000 0.36830  0.38370  0.64330  Biso   1.000  C
  C69      1.0000 0.25630  0.38560  0.64120  Biso   1.000  C
  C70      1.0000 0.21680  0.44840  0.63850  Biso   1.000  C
  N66      1.0000 0.11450  0.46110  0.63470  Biso   1.000  N
  H56      1.0000 0.07050  0.43030  0.63390  Biso   1.000  H
  H57      1.0000 0.09290  0.50010  0.63320  Biso   1.000  H
  C71      1.0000 0.28730  0.43150  0.64560  Biso   1.000  C
  C72      1.0000 0.19260  0.40170  0.64460  Biso   1.000  C
  N67      1.0000 0.10160  0.43060  0.64310  Biso   1.000  N
  H58      1.0000 0.09820  0.47170  0.64270  Biso   1.000  H
  H59      1.0000 0.04600  0.40830  0.64260  Biso   1.000  H
  N68      1.0000 0.20050  0.33060  0.64450  Biso   1.000  N
  C73      1.0000 0.28550  0.29410  0.64800  Biso   1.000  C
  H60      1.0000 0.27930  0.25000  0.65060  Biso   1.000  H
  N69      1.0000 0.38000  0.31990  0.64779  Biso   1.000  N
  N70      1.0000 0.73490  0.44150  0.81030  Biso   1.000  N
  C74      1.0000 0.68790  0.44760  0.75370  Biso   1.000  C
  H61      1.0000 0.69160  0.48770  0.73680  Biso   1.000  H
  N71      1.0000 0.63590  0.40240  0.71837  Biso   1.000  N
  C75      1.0000 0.63330  0.34590  0.74600  Biso   1.000  C
  C76      1.0000 0.68260  0.33320  0.80490  Biso   1.000  C
  C77      1.0000 0.73670  0.38320  0.83760  Biso   1.000  C
  N72      1.0000 0.78940  0.37660  0.89345  Biso   1.000  N
  H62      1.0000 0.82190  0.40880  0.91200  Biso   1.000  H
  H63      1.0000 0.79080  0.34010  0.91080  Biso   1.000  H
  N73      1.0000 0.66790  0.27060  0.81900  Biso   1.000  N
  C78      1.0000 0.61050  0.24870  0.76770  Biso   1.000  C
  H64      1.0000 0.58820  0.20640  0.76320  Biso   1.000  H
  N74      1.0000 0.58670  0.29120  0.72276  Biso   1.000  N
  N75      1.0000 0.90750  0.35850  0.62031  Biso   1.000  N
  C79      1.0000 0.82020  0.38800  0.62510  Biso   1.000  C
  H65      1.0000 0.82390  0.43230  0.62890  Biso   1.000  H
  N76      1.0000 0.72650  0.36110  0.62488  Biso   1.000  N
  C80      1.0000 0.72930  0.29620  0.61930  Biso   1.000  C
  C81      1.0000 0.81610  0.25960  0.61190  Biso   1.000  C
  C82      1.0000 0.90810  0.29210  0.61430  Biso   1.000  C
  N77      1.0000 0.99920  0.25980  0.61180  Biso   1.000  N
  H66      1.0000 0.99870  0.21880  0.60870  Biso   1.000  H
  H67      1.0000 0.05670  0.28070  0.61330  Biso   1.000  H
  N78      1.0000 0.79280  0.19570  0.60746  Biso   1.000  N
  C83      1.0000 0.69230  0.19660  0.61230  Biso   1.000  C
  H68      1.0000 0.65300  0.15920  0.61070  Biso   1.000  H
  N79      1.0000 0.65040  0.25460  0.61976  Biso   1.000  N
  N80      1.0000 0.36100  0.24580  0.45623  Biso   1.000  N
  C84      1.0000 0.39500  0.23950  0.51440  Biso   1.000  C
  H69      1.0000 0.37530  0.20250  0.53170  Biso   1.000  H
  N81      1.0000 0.45520  0.28150  0.55061  Biso   1.000  N
  C85      1.0000 0.47850  0.33400  0.52190  Biso   1.000  C
  C86      1.0000 0.44670  0.34580  0.46140  Biso   1.000  C
  C87      1.0000 0.38500  0.29950  0.42780  Biso   1.000  C
  N82      1.0000 0.35020  0.30530  0.36880  Biso   1.000  N
  H70      1.0000 0.31310  0.27530  0.34920  Biso   1.000  H
  H71      1.0000 0.36520  0.33890  0.35080  Biso   1.000  H
  N83      1.0000 0.48540  0.40340  0.44540  Biso   1.000  N
  C88      1.0000 0.53760  0.42310  0.49780  Biso   1.000  C
  H72      1.0000 0.57410  0.46160  0.50190  Biso   1.000  H
  N84      1.0000 0.53640  0.38580  0.54525  Biso   1.000  N
  Cu9      1.0000 0.02998  0.95801  0.45457  Biso   1.000  Cu
  N85      1.0000 0.95930  0.08670  0.30821  Biso   1.000  N
  C89      1.0000 0.98960  0.03820  0.34400  Biso   1.000  C
  H73      1.0000 0.01530  0.00250  0.32760  Biso   1.000  H
  N86      1.0000 0.98750  0.03480  0.40157  Biso   1.000  N
  C90      1.0000 0.94620  0.08830  0.42080  Biso   1.000  C
  C91      1.0000 0.90970  0.14210  0.38610  Biso   1.000  C
  C92      1.0000 0.91860  0.14020  0.32900  Biso   1.000  C
  N87      1.0000 0.88710  0.18950  0.29050  Biso   1.000  N
  H74      1.0000 0.86040  0.22340  0.30240  Biso   1.000  H
  H75      1.0000 0.89390  0.18660  0.25440  Biso   1.000  H
  N88      1.0000 0.86750  0.18780  0.41900  Biso   1.000  N
  C93      1.0000 0.88330  0.15840  0.47200  Biso   1.000  C
  H76      1.0000 0.86310  0.17720  0.50430  Biso   1.000  H
  N89      1.0000 0.93000  0.10030  0.47616  Biso   1.000  N
  N90      1.0000 0.64290  0.99440  0.51769  Biso   1.000  N
  C94      1.0000 0.73940  0.01710  0.53780  Biso   1.000  C
  H77      1.0000 0.74740  0.04670  0.56850  Biso   1.000  H
  N91      1.0000 0.82580  0.00180  0.51855  Biso   1.000  N
  C95      1.0000 0.80820  0.95700  0.47480  Biso   1.000  C
  C96      1.0000 0.71170  0.92770  0.45190  Biso   1.000  C
  C97      1.0000 0.62460  0.95030  0.47250  Biso   1.000  C
  N92      1.0000 0.52690  0.92940  0.45030  Biso   1.000  N
  H78      1.0000 0.47510  0.94360  0.46430  Biso   1.000  H
  H79      1.0000 0.51600  0.90180  0.42210  Biso   1.000  H
  N93      1.0000 0.72000  0.88500  0.40810  Biso   1.000  N
  C98      1.0000 0.82180  0.89020  0.40690  Biso   1.000  C
  H80      1.0000 0.85220  0.86610  0.38110  Biso   1.000  H
  N94      1.0000 0.87850  0.93260  0.44558  Biso   1.000  N
  Cu10     1.0000 0.97002  0.04199  0.54543  Biso   1.000  Cu
  N95      1.0000 0.04070  0.91330  0.69179  Biso   1.000  N
  C99      1.0000 0.01040  0.96180  0.65600  Biso   1.000  C
  H81      1.0000 0.98470  0.99750  0.67240  Biso   1.000  H
  N96      1.0000 0.01250  0.96520  0.59843  Biso   1.000  N
  C100     1.0000 0.05380  0.91170  0.57920  Biso   1.000  C
  C101     1.0000 0.09030  0.85790  0.61390  Biso   1.000  C
  C102     1.0000 0.08140  0.85980  0.67100  Biso   1.000  C
  N97      1.0000 0.11290  0.81050  0.70950  Biso   1.000  N
  H82      1.0000 0.13960  0.77660  0.69760  Biso   1.000  H
  H83      1.0000 0.10610  0.81340  0.74560  Biso   1.000  H
  N98      1.0000 0.13250  0.81220  0.58100  Biso   1.000  N
  C103     1.0000 0.11670  0.84160  0.52800  Biso   1.000  C
  H84      1.0000 0.13690  0.82280  0.49570  Biso   1.000  H
  N99      1.0000 0.07000  0.89970  0.52384  Biso   1.000  N
  N100     1.0000 0.35710  0.00560  0.48231  Biso   1.000  N
  C104     1.0000 0.26060  0.98290  0.46220  Biso   1.000  C
  H85      1.0000 0.25260  0.95330  0.43150  Biso   1.000  H
  N101     1.0000 0.17420  0.99820  0.48145  Biso   1.000  N
  C105     1.0000 0.19180  0.04300  0.52520  Biso   1.000  C
  C106     1.0000 0.28830  0.07230  0.54810  Biso   1.000  C
  C107     1.0000 0.37540  0.04970  0.52750  Biso   1.000  C
  N102     1.0000 0.47310  0.07060  0.54970  Biso   1.000  N
  H86      1.0000 0.52490  0.05640  0.53570  Biso   1.000  H
  H87      1.0000 0.48400  0.09820  0.57790  Biso   1.000  H
  N103     1.0000 0.28000  0.11500  0.59190  Biso   1.000  N
  C108     1.0000 0.17820  0.10980  0.59310  Biso   1.000  C
  H88      1.0000 0.14780  0.13390  0.61890  Biso   1.000  H
  N104     1.0000 0.12150  0.06740  0.55442  Biso   1.000  N
  Cu11     1.0000 0.47002  0.45801  0.04543  Biso   1.000  Cu
  N105     1.0000 0.54070  0.58670  0.19179  Biso   1.000  N
  C109     1.0000 0.51040  0.53820  0.15600  Biso   1.000  C
  H89      1.0000 0.48470  0.50250  0.17240  Biso   1.000  H
  N106     1.0000 0.51250  0.53480  0.09843  Biso   1.000  N
  C110     1.0000 0.55380  0.58830  0.07920  Biso   1.000  C
  C111     1.0000 0.59030  0.64210  0.11390  Biso   1.000  C
  C112     1.0000 0.58140  0.64020  0.17100  Biso   1.000  C
  N107     1.0000 0.61290  0.68950  0.20950  Biso   1.000  N
  H90      1.0000 0.63960  0.72340  0.19760  Biso   1.000  H
  H91      1.0000 0.60610  0.68660  0.24560  Biso   1.000  H
  N108     1.0000 0.63250  0.68780  0.08100  Biso   1.000  N
  C113     1.0000 0.61670  0.65840  0.02800  Biso   1.000  C
  H92      1.0000 0.63690  0.67720  0.99570  Biso   1.000  H
  N109     1.0000 0.57000  0.60030  0.02384  Biso   1.000  N
  N110     1.0000 0.85710  0.49440  0.98231  Biso   1.000  N
  C114     1.0000 0.76060  0.51710  0.96220  Biso   1.000  C
  H93      1.0000 0.75260  0.54670  0.93150  Biso   1.000  H
  N111     1.0000 0.67420  0.50180  0.98145  Biso   1.000  N
  C115     1.0000 0.69180  0.45700  0.02520  Biso   1.000  C
  C116     1.0000 0.78830  0.42770  0.04810  Biso   1.000  C
  C117     1.0000 0.87540  0.45030  0.02750  Biso   1.000  C
  N112     1.0000 0.97310  0.42940  0.04970  Biso   1.000  N
  H94      1.0000 0.02490  0.44360  0.03570  Biso   1.000  H
  H95      1.0000 0.98400  0.40180  0.07790  Biso   1.000  H
  N113     1.0000 0.78000  0.38500  0.09190  Biso   1.000  N
  C118     1.0000 0.67820  0.39020  0.09310  Biso   1.000  C
  H96      1.0000 0.64780  0.36610  0.11890  Biso   1.000  H
  N114     1.0000 0.62150  0.43260  0.05442  Biso   1.000  N
  Cu12     1.0000 0.52998  0.54199  0.95457  Biso   1.000  Cu
  N115     1.0000 0.45930  0.41330  0.80821  Biso   1.000  N
  C119     1.0000 0.48960  0.46180  0.84400  Biso   1.000  C
  H97      1.0000 0.51530  0.49750  0.82760  Biso   1.000  H
  N116     1.0000 0.48750  0.46520  0.90157  Biso   1.000  N
  C120     1.0000 0.44620  0.41170  0.92080  Biso   1.000  C
  C121     1.0000 0.40970  0.35790  0.88610  Biso   1.000  C
  C122     1.0000 0.41860  0.35980  0.82900  Biso   1.000  C
  N117     1.0000 0.38710  0.31050  0.79050  Biso   1.000  N
  H98      1.0000 0.36040  0.27660  0.80240  Biso   1.000  H
  H99      1.0000 0.39390  0.31340  0.75440  Biso   1.000  H
  N118     1.0000 0.36750  0.31220  0.91900  Biso   1.000  N
  C123     1.0000 0.38330  0.34160  0.97200  Biso   1.000  C
  H100     1.0000 0.36310  0.32280  0.00430  Biso   1.000  H
  N119     1.0000 0.43000  0.39970  0.97616  Biso   1.000  N
  N120     1.0000 0.14290  0.50560  0.01769  Biso   1.000  N
  C124     1.0000 0.23940  0.48290  0.03780  Biso   1.000  C
  H101     1.0000 0.24740  0.45330  0.06850  Biso   1.000  H
  N121     1.0000 0.32580  0.49820  0.01855  Biso   1.000  N
  C125     1.0000 0.30820  0.54300  0.97480  Biso   1.000  C
  C126     1.0000 0.21170  0.57230  0.95190  Biso   1.000  C
  C127     1.0000 0.12460  0.54970  0.97250  Biso   1.000  C
  N122     1.0000 0.02690  0.57060  0.95030  Biso   1.000  N
  H102     1.0000 0.97510  0.55640  0.96430  Biso   1.000  H
  H103     1.0000 0.01600  0.59820  0.92210  Biso   1.000  H
  N123     1.0000 0.22000  0.61500  0.90810  Biso   1.000  N
  C128     1.0000 0.32180  0.60980  0.90690  Biso   1.000  C
  H104     1.0000 0.35220  0.63390  0.88110  Biso   1.000  H
  N124     1.0000 0.37850  0.56740  0.94558  Biso   1.000  N
