data_image0
_cell_length_a       13.014
_cell_length_b       7.208
_cell_length_c       18.102
_cell_angle_alpha    90
_cell_angle_beta     103.822
_cell_angle_gamma    90

_symmetry_space_group_name_H-M    "P 1"
_symmetry_int_tables_number       1

loop_
  _symmetry_equiv_pos_as_xyz
  'x, y, z'

loop_
  _atom_site_label
  _atom_site_occupancy
  _atom_site_fract_x
  _atom_site_fract_y
  _atom_site_fract_z
  _atom_site_thermal_displace_type
  _atom_site_B_iso_or_equiv
  _atom_site_type_symbol
  Zn1      1.0000 0.06102  0.48497  0.23063  Biso   1.000  Zn
  N1       1.0000 0.05820  0.62300  0.12320  Biso   1.000  N
  N2       1.0000 0.21230  0.57400  0.24030  Biso   1.000  N
  O1       1.0000 0.13420  0.43270  0.34675  Biso   1.000  O
  O2       1.0000 0.28980  0.45130  0.43321  Biso   1.000  O
  O3       1.0000 0.90810  0.46980  0.22237  Biso   1.000  O
  O4       1.0000 0.93080  0.71380  0.30030  Biso   1.000  O
  C1       1.0000 0.97280  0.66300  0.06810  Biso   1.000  C
  H1       1.0000 0.90680  0.63360  0.07630  Biso   1.000  H
  C2       1.0000 0.97630  0.74470  0.00030  Biso   1.000  C
  H2       1.0000 0.91490  0.76630  0.96290  Biso   1.000  H
  C3       1.0000 0.07560  0.79430  0.98950  Biso   1.000  C
  H3       1.0000 0.08200  0.85040  0.94450  Biso   1.000  H
  C4       1.0000 0.16460  0.75760  0.04770  Biso   1.000  C
  H4       1.0000 0.23160  0.79080  0.04260  Biso   1.000  H
  C5       1.0000 0.15260  0.67190  0.11300  Biso   1.000  C
  C6       1.0000 0.24380  0.63120  0.17830  Biso   1.000  C
  C7       1.0000 0.34930  0.64380  0.17890  Biso   1.000  C
  H5       1.0000 0.37040  0.68370  0.13590  Biso   1.000  H
  C8       1.0000 0.42410  0.59580  0.24470  Biso   1.000  C
  C9       1.0000 0.38990  0.54180  0.30900  Biso   1.000  C
  H6       1.0000 0.43860  0.51340  0.35430  Biso   1.000  H
  C10      1.0000 0.28290  0.53120  0.30420  Biso   1.000  C
  C11      1.0000 0.23250  0.46540  0.36770  Biso   1.000  C
  C12      1.0000 0.53950  0.59490  0.24760  Biso   1.000  C
  C13      1.0000 0.61230  0.65090  0.31360  Biso   1.000  C
  H7       1.0000 0.58820  0.68770  0.35570  Biso   1.000  H
  C14      1.0000 0.71970  0.65230  0.31720  Biso   1.000  C
  H8       1.0000 0.76710  0.69440  0.36090  Biso   1.000  H
  C15      1.0000 0.75680  0.59030  0.25530  Biso   1.000  C
  C16      1.0000 0.68550  0.53200  0.19050  Biso   1.000  C
  H9       1.0000 0.71010  0.48790  0.14960  Biso   1.000  H
  C17      1.0000 0.57700  0.53820  0.18530  Biso   1.000  C
  H10      1.0000 0.52950  0.50450  0.14020  Biso   1.000  H
  C18      1.0000 0.87350  0.59250  0.25990  Biso   1.000  C
  Zn2      1.0000 0.93898  0.98497  0.26937  Biso   1.000  Zn
  N3       1.0000 0.94180  0.12300  0.37680  Biso   1.000  N
  N4       1.0000 0.78770  0.07400  0.25970  Biso   1.000  N
  O5       1.0000 0.86580  0.93270  0.15325  Biso   1.000  O
  O6       1.0000 0.71020  0.95130  0.06679  Biso   1.000  O
  O7       1.0000 0.09190  0.96980  0.27763  Biso   1.000  O
  O8       1.0000 0.06920  0.21380  0.19970  Biso   1.000  O
  C19      1.0000 0.02720  0.16300  0.43190  Biso   1.000  C
  H11      1.0000 0.09320  0.13360  0.42370  Biso   1.000  H
  C20      1.0000 0.02370  0.24470  0.49970  Biso   1.000  C
  H12      1.0000 0.08510  0.26630  0.53710  Biso   1.000  H
  C21      1.0000 0.92440  0.29430  0.51050  Biso   1.000  C
  H13      1.0000 0.91800  0.35040  0.55550  Biso   1.000  H
  C22      1.0000 0.83540  0.25760  0.45230  Biso   1.000  C
  H14      1.0000 0.76840  0.29080  0.45740  Biso   1.000  H
  C23      1.0000 0.84740  0.17190  0.38700  Biso   1.000  C
  C24      1.0000 0.75620  0.13120  0.32170  Biso   1.000  C
  C25      1.0000 0.65070  0.14380  0.32110  Biso   1.000  C
  H15      1.0000 0.62960  0.18370  0.36410  Biso   1.000  H
  C26      1.0000 0.57590  0.09580  0.25530  Biso   1.000  C
  C27      1.0000 0.61010  0.04180  0.19100  Biso   1.000  C
  H16      1.0000 0.56140  0.01340  0.14570  Biso   1.000  H
  C28      1.0000 0.71710  0.03120  0.19580  Biso   1.000  C
  C29      1.0000 0.76750  0.96540  0.13230  Biso   1.000  C
  C30      1.0000 0.46050  0.09490  0.25240  Biso   1.000  C
  C31      1.0000 0.38770  0.15090  0.18640  Biso   1.000  C
  H17      1.0000 0.41180  0.18770  0.14430  Biso   1.000  H
  C32      1.0000 0.28030  0.15230  0.18280  Biso   1.000  C
  H18      1.0000 0.23290  0.19440  0.13910  Biso   1.000  H
  C33      1.0000 0.24320  0.09030  0.24470  Biso   1.000  C
  C34      1.0000 0.31450  0.03200  0.30950  Biso   1.000  C
  H19      1.0000 0.28990  0.98790  0.35040  Biso   1.000  H
  C35      1.0000 0.42300  0.03820  0.31470  Biso   1.000  C
  H20      1.0000 0.47050  0.00450  0.35980  Biso   1.000  H
  C36      1.0000 0.12650  0.09250  0.24010  Biso   1.000  C
  Zn3      1.0000 0.93898  0.51503  0.76937  Biso   1.000  Zn
  N5       1.0000 0.94180  0.37700  0.87680  Biso   1.000  N
  N6       1.0000 0.78770  0.42600  0.75970  Biso   1.000  N
  O9       1.0000 0.86580  0.56730  0.65325  Biso   1.000  O
  O10      1.0000 0.71020  0.54870  0.56679  Biso   1.000  O
  O11      1.0000 0.09190  0.53020  0.77763  Biso   1.000  O
  O12      1.0000 0.06920  0.28620  0.69970  Biso   1.000  O
  C37      1.0000 0.02720  0.33700  0.93190  Biso   1.000  C
  H21      1.0000 0.09320  0.36640  0.92370  Biso   1.000  H
  C38      1.0000 0.02370  0.25530  0.99970  Biso   1.000  C
  H22      1.0000 0.08510  0.23370  0.03710  Biso   1.000  H
  C39      1.0000 0.92440  0.20570  0.01050  Biso   1.000  C
  H23      1.0000 0.91800  0.14960  0.05550  Biso   1.000  H
  C40      1.0000 0.83540  0.24240  0.95230  Biso   1.000  C
  H24      1.0000 0.76840  0.20920  0.95740  Biso   1.000  H
  C41      1.0000 0.84740  0.32810  0.88700  Biso   1.000  C
  C42      1.0000 0.75620  0.36880  0.82170  Biso   1.000  C
  C43      1.0000 0.65070  0.35620  0.82110  Biso   1.000  C
  H25      1.0000 0.62960  0.31630  0.86410  Biso   1.000  H
  C44      1.0000 0.57590  0.40420  0.75530  Biso   1.000  C
  C45      1.0000 0.61010  0.45820  0.69100  Biso   1.000  C
  H26      1.0000 0.56140  0.48660  0.64570  Biso   1.000  H
  C46      1.0000 0.71710  0.46880  0.69580  Biso   1.000  C
  C47      1.0000 0.76750  0.53460  0.63230  Biso   1.000  C
  C48      1.0000 0.46050  0.40510  0.75240  Biso   1.000  C
  C49      1.0000 0.38770  0.34910  0.68640  Biso   1.000  C
  H27      1.0000 0.41180  0.31230  0.64430  Biso   1.000  H
  C50      1.0000 0.28030  0.34770  0.68280  Biso   1.000  C
  H28      1.0000 0.23290  0.30560  0.63910  Biso   1.000  H
  C51      1.0000 0.24320  0.40970  0.74470  Biso   1.000  C
  C52      1.0000 0.31450  0.46800  0.80950  Biso   1.000  C
  H29      1.0000 0.28990  0.51210  0.85040  Biso   1.000  H
  C53      1.0000 0.42300  0.46180  0.81470  Biso   1.000  C
  H30      1.0000 0.47050  0.49550  0.85980  Biso   1.000  H
  C54      1.0000 0.12650  0.40750  0.74010  Biso   1.000  C
  Zn4      1.0000 0.06102  0.01503  0.73063  Biso   1.000  Zn
  N7       1.0000 0.05820  0.87700  0.62320  Biso   1.000  N
  N8       1.0000 0.21230  0.92600  0.74030  Biso   1.000  N
  O13      1.0000 0.13420  0.06730  0.84675  Biso   1.000  O
  O14      1.0000 0.28980  0.04870  0.93321  Biso   1.000  O
  O15      1.0000 0.90810  0.03020  0.72237  Biso   1.000  O
  O16      1.0000 0.93080  0.78620  0.80030  Biso   1.000  O
  C55      1.0000 0.97280  0.83700  0.56810  Biso   1.000  C
  H31      1.0000 0.90680  0.86640  0.57630  Biso   1.000  H
  C56      1.0000 0.97630  0.75530  0.50030  Biso   1.000  C
  H32      1.0000 0.91490  0.73370  0.46290  Biso   1.000  H
  C57      1.0000 0.07560  0.70570  0.48950  Biso   1.000  C
  H33      1.0000 0.08200  0.64960  0.44450  Biso   1.000  H
  C58      1.0000 0.16460  0.74240  0.54770  Biso   1.000  C
  H34      1.0000 0.23160  0.70920  0.54260  Biso   1.000  H
  C59      1.0000 0.15260  0.82810  0.61300  Biso   1.000  C
  C60      1.0000 0.24380  0.86880  0.67830  Biso   1.000  C
  C61      1.0000 0.34930  0.85620  0.67890  Biso   1.000  C
  H35      1.0000 0.37040  0.81630  0.63590  Biso   1.000  H
  C62      1.0000 0.42410  0.90420  0.74470  Biso   1.000  C
  C63      1.0000 0.38990  0.95820  0.80900  Biso   1.000  C
  H36      1.0000 0.43860  0.98660  0.85430  Biso   1.000  H
  C64      1.0000 0.28290  0.96880  0.80420  Biso   1.000  C
  C65      1.0000 0.23250  0.03460  0.86770  Biso   1.000  C
  C66      1.0000 0.53950  0.90510  0.74760  Biso   1.000  C
  C67      1.0000 0.61230  0.84910  0.81360  Biso   1.000  C
  H37      1.0000 0.58820  0.81230  0.85570  Biso   1.000  H
  C68      1.0000 0.71970  0.84770  0.81720  Biso   1.000  C
  H38      1.0000 0.76710  0.80560  0.86090  Biso   1.000  H
  C69      1.0000 0.75680  0.90970  0.75530  Biso   1.000  C
  C70      1.0000 0.68550  0.96800  0.69050  Biso   1.000  C
  H39      1.0000 0.71010  0.01210  0.64960  Biso   1.000  H
  C71      1.0000 0.57700  0.96180  0.68530  Biso   1.000  C
  H40      1.0000 0.52950  0.99550  0.64020  Biso   1.000  H
  C72      1.0000 0.87350  0.90750  0.75990  Biso   1.000  C
