data_image0
_cell_length_a       9.5784
_cell_length_b       12.5251
_cell_length_c       13.7561
_cell_angle_alpha    70.332
_cell_angle_beta     84.869
_cell_angle_gamma    73.238

_symmetry_space_group_name_H-M    "P 1"
_symmetry_int_tables_number       1

loop_
  _symmetry_equiv_pos_as_xyz
  'x, y, z'

loop_
  _atom_site_label
  _atom_site_occupancy
  _atom_site_fract_x
  _atom_site_fract_y
  _atom_site_fract_z
  _atom_site_thermal_displace_type
  _atom_site_B_iso_or_equiv
  _atom_site_type_symbol
  Co1      1.0000 0.49554  0.70937  0.76290  Biso   1.000  Co
  O1       1.0000 0.38699  0.63435  0.70293  Biso   1.000  O
  O2       1.0000 0.21372  0.74321  0.77294  Biso   1.000  O
  O3       1.0000 0.66159  0.67674  0.57973  Biso   1.000  O
  O4       1.0000 0.70891  0.65690  0.74146  Biso   1.000  O
  O5       1.0000 0.88107  0.79871  0.78352  Biso   1.000  O
  O6       1.0000 0.97480  0.60992  0.86978  Biso   1.000  O
  H1       1.0000 0.00090  0.54810  0.85630  Biso   1.000  H
  N1       1.0000 0.45980  0.88397  0.68928  Biso   1.000  N
  N2       1.0000 0.51940  0.04756  0.60449  Biso   1.000  N
  N3       1.0000 0.57960  0.36487  0.92284  Biso   1.000  N
  N4       1.0000 0.50530  0.33671  0.08273  Biso   1.000  N
  C1       1.0000 0.38560  0.36930  0.01950  Biso   1.000  C
  H2       1.0000 0.28960  0.37760  0.04140  Biso   1.000  H
  C2       1.0000 0.43010  0.38700  0.92060  Biso   1.000  C
  H3       1.0000 0.37160  0.40950  0.86280  Biso   1.000  H
  C3       1.0000 0.61900  0.33600  0.02080  Biso   1.000  C
  H4       1.0000 0.71460  0.31760  0.04280  Biso   1.000  H
  C4       1.0000 0.67830  0.37840  0.83350  Biso   1.000  C
  H5       1.0000 0.77840  0.34980  0.85830  Biso   1.000  H
  H6       1.0000 0.66000  0.46150  0.79390  Biso   1.000  H
  C5       1.0000 0.65940  0.31250  0.76405  Biso   1.000  C
  C6       1.0000 0.55910  0.36710  0.68370  Biso   1.000  C
  H7       1.0000 0.50380  0.44460  0.67250  Biso   1.000  H
  C7       1.0000 0.54060  0.30690  0.62000  Biso   1.000  C
  H8       1.0000 0.47110  0.34360  0.56730  Biso   1.000  H
  C8       1.0000 0.62480  0.19260  0.63400  Biso   1.000  C
  C9       1.0000 0.72600  0.13890  0.71370  Biso   1.000  C
  H9       1.0000 0.78320  0.06200  0.72380  Biso   1.000  H
  C10      1.0000 0.74330  0.19800  0.77850  Biso   1.000  C
  H10      1.0000 0.81140  0.16070  0.83200  Biso   1.000  H
  C11      1.0000 0.61000  0.12950  0.56110  Biso   1.000  C
  H11      1.0000 0.56660  0.18720  0.49670  Biso   1.000  H
  H12      1.0000 0.70610  0.08590  0.54610  Biso   1.000  H
  C12      1.0000 0.36970  0.07520  0.59990  Biso   1.000  C
  H13      1.0000 0.30590  0.14840  0.56720  Biso   1.000  H
  C13      1.0000 0.33440  0.97390  0.65280  Biso   1.000  C
  H14      1.0000 0.24010  0.96610  0.66300  Biso   1.000  H
  C14      1.0000 0.56850  0.93320  0.65870  Biso   1.000  C
  H15      1.0000 0.66640  0.89320  0.67310  Biso   1.000  H
  C15      1.0000 0.25280  0.68090  0.71700  Biso   1.000  C
  C16      1.0000 0.14460  0.66140  0.65651  Biso   1.000  C
  C17      1.0000 0.19330  0.63620  0.56630  Biso   1.000  C
  H16      1.0000 0.29110  0.62680  0.54870  Biso   1.000  H
  C18      1.0000 0.09890  0.62490  0.50220  Biso   1.000  C
  H17      1.0000 0.13220  0.60980  0.44130  Biso   1.000  H
  C19      1.0000 0.95450  0.63630  0.53010  Biso   1.000  C
  H18      1.0000 0.89030  0.62950  0.48710  Biso   1.000  H
  C20      1.0000 0.90350  0.65780  0.62170  Biso   1.000  C
  C21      1.0000 0.99820  0.67270  0.68523  Biso   1.000  C
  C22      1.0000 0.94540  0.69870  0.78450  Biso   1.000  C
  C23      1.0000 0.74570  0.66380  0.64803  Biso   1.000  C
  Co2      1.0000 0.50446  0.29063  0.23710  Biso   1.000  Co
  O7       1.0000 0.61301  0.36565  0.29707  Biso   1.000  O
  O8       1.0000 0.78628  0.25679  0.22706  Biso   1.000  O
  O9       1.0000 0.33841  0.32326  0.42027  Biso   1.000  O
  O10      1.0000 0.29109  0.34310  0.25854  Biso   1.000  O
  O11      1.0000 0.11893  0.20129  0.21648  Biso   1.000  O
  O12      1.0000 0.02520  0.39008  0.13022  Biso   1.000  O
  H19      1.0000 0.99910  0.45190  0.14370  Biso   1.000  H
  N5       1.0000 0.54020  0.11603  0.31072  Biso   1.000  N
  N6       1.0000 0.48060  0.95244  0.39551  Biso   1.000  N
  N7       1.0000 0.42040  0.63513  0.07716  Biso   1.000  N
  N8       1.0000 0.49470  0.66329  0.91727  Biso   1.000  N
  C24      1.0000 0.61440  0.63070  0.98050  Biso   1.000  C
  H20      1.0000 0.71040  0.62240  0.95860  Biso   1.000  H
  C25      1.0000 0.56990  0.61300  0.07940  Biso   1.000  C
  H21      1.0000 0.62840  0.59050  0.13720  Biso   1.000  H
  C26      1.0000 0.38100  0.66400  0.97920  Biso   1.000  C
  H22      1.0000 0.28540  0.68240  0.95720  Biso   1.000  H
  C27      1.0000 0.32170  0.62160  0.16650  Biso   1.000  C
  H23      1.0000 0.22160  0.65020  0.14170  Biso   1.000  H
  H24      1.0000 0.34000  0.53850  0.20610  Biso   1.000  H
  C28      1.0000 0.34060  0.68750  0.23595  Biso   1.000  C
  C29      1.0000 0.44090  0.63290  0.31630  Biso   1.000  C
  H25      1.0000 0.49620  0.55540  0.32750  Biso   1.000  H
  C30      1.0000 0.45940  0.69310  0.38000  Biso   1.000  C
  H26      1.0000 0.52890  0.65640  0.43270  Biso   1.000  H
  C31      1.0000 0.37520  0.80740  0.36600  Biso   1.000  C
  C32      1.0000 0.27400  0.86110  0.28630  Biso   1.000  C
  H27      1.0000 0.21680  0.93800  0.27620  Biso   1.000  H
  C33      1.0000 0.25670  0.80200  0.22150  Biso   1.000  C
  H28      1.0000 0.18860  0.83930  0.16800  Biso   1.000  H
  C34      1.0000 0.39000  0.87050  0.43890  Biso   1.000  C
  H29      1.0000 0.43340  0.81280  0.50330  Biso   1.000  H
  H30      1.0000 0.29390  0.91410  0.45390  Biso   1.000  H
  C35      1.0000 0.63030  0.92480  0.40010  Biso   1.000  C
  H31      1.0000 0.69410  0.85160  0.43280  Biso   1.000  H
  C36      1.0000 0.66560  0.02610  0.34720  Biso   1.000  C
  H32      1.0000 0.75990  0.03390  0.33700  Biso   1.000  H
  C37      1.0000 0.43150  0.06680  0.34130  Biso   1.000  C
  H33      1.0000 0.33360  0.10680  0.32690  Biso   1.000  H
  C38      1.0000 0.74720  0.31910  0.28300  Biso   1.000  C
  C39      1.0000 0.85540  0.33860  0.34349  Biso   1.000  C
  C40      1.0000 0.80670  0.36380  0.43370  Biso   1.000  C
  H34      1.0000 0.70890  0.37320  0.45130  Biso   1.000  H
  C41      1.0000 0.90110  0.37510  0.49780  Biso   1.000  C
  H35      1.0000 0.86780  0.39020  0.55870  Biso   1.000  H
  C42      1.0000 0.04550  0.36370  0.46990  Biso   1.000  C
  H36      1.0000 0.10970  0.37050  0.51290  Biso   1.000  H
  C43      1.0000 0.09650  0.34220  0.37830  Biso   1.000  C
  C44      1.0000 0.00180  0.32730  0.31477  Biso   1.000  C
  C45      1.0000 0.05460  0.30130  0.21550  Biso   1.000  C
  C46      1.0000 0.25430  0.33620  0.35197  Biso   1.000  C
