data_image0
_cell_length_a       10.168
_cell_length_b       11.494
_cell_length_c       16.192
_cell_angle_alpha    77.675
_cell_angle_beta     72.28
_cell_angle_gamma    63.88

_symmetry_space_group_name_H-M    "P 1"
_symmetry_int_tables_number       1

loop_
  _symmetry_equiv_pos_as_xyz
  'x, y, z'

loop_
  _atom_site_label
  _atom_site_occupancy
  _atom_site_fract_x
  _atom_site_fract_y
  _atom_site_fract_z
  _atom_site_thermal_displace_type
  _atom_site_B_iso_or_equiv
  _atom_site_type_symbol
  Cu1      1.0000 0.00330  0.73929  0.57828  Biso   1.000  Cu
  Cu2      1.0000 0.98788  0.73512  0.74386  Biso   1.000  Cu
  O1       1.0000 0.14780  0.81910  0.55600  Biso   1.000  O
  O2       1.0000 0.12880  0.82250  0.69680  Biso   1.000  O
  O3       1.0000 0.85640  0.65870  0.62500  Biso   1.000  O
  O4       1.0000 0.84820  0.64900  0.76500  Biso   1.000  O
  O5       1.0000 0.81170  0.90400  0.74020  Biso   1.000  O
  O6       1.0000 0.83130  0.90870  0.59930  Biso   1.000  O
  O7       1.0000 0.17310  0.56950  0.58630  Biso   1.000  O
  O8       1.0000 0.16220  0.56540  0.72570  Biso   1.000  O
  N1       1.0000 0.00470  0.75050  0.44320  Biso   1.000  N
  N2       1.0000 0.98730  0.73840  0.87600  Biso   1.000  N
  C1       1.0000 0.18570  0.84120  0.61670  Biso   1.000  C
  C2       1.0000 0.30520  0.89340  0.59030  Biso   1.000  C
  H1       1.0000 0.27470  0.96990  0.54960  Biso   1.000  H
  H2       1.0000 0.39730  0.82870  0.55940  Biso   1.000  H
  C3       1.0000 0.34050  0.92950  0.66240  Biso   1.000  C
  H3       1.0000 0.36690  0.85430  0.70450  Biso   1.000  H
  H4       1.0000 0.24990  0.99740  0.69160  Biso   1.000  H
  C4       1.0000 0.46740  0.97660  0.63410  Biso   1.000  C
  H5       1.0000 0.56130  0.90470  0.61270  Biso   1.000  H
  H6       1.0000 0.44830  0.04390  0.58610  Biso   1.000  H
  C5       1.0000 0.80440  0.63510  0.70470  Biso   1.000  C
  C6       1.0000 0.67950  0.58830  0.73000  Biso   1.000  C
  H7       1.0000 0.70320  0.51480  0.77370  Biso   1.000  H
  H8       1.0000 0.58740  0.65710  0.75710  Biso   1.000  H
  C7       1.0000 0.64880  0.54770  0.65760  Biso   1.000  C
  H9       1.0000 0.74080  0.48020  0.62910  Biso   1.000  H
  H10      1.0000 0.62040  0.62160  0.61470  Biso   1.000  H
  C8       1.0000 0.52460  0.49720  0.68870  Biso   1.000  C
  H11      1.0000 0.43040  0.56690  0.71280  Biso   1.000  H
  H12      1.0000 0.54880  0.42780  0.73490  Biso   1.000  H
  C9       1.0000 0.50380  0.44710  0.61750  Biso   1.000  C
  H13      1.0000 0.59620  0.37340  0.59690  Biso   1.000  H
  H14      1.0000 0.48910  0.51450  0.56940  Biso   1.000  H
  C10      1.0000 0.76650  0.95190  0.67140  Biso   1.000  C
  C11      1.0000 0.61890  0.07110  0.68030  Biso   1.000  C
  H15      1.0000 0.61780  0.12600  0.62570  Biso   1.000  H
  H16      1.0000 0.60880  0.12080  0.72500  Biso   1.000  H
  C12      1.0000 0.48560  0.02940  0.70470  Biso   1.000  C
  H17      1.0000 0.49800  0.96370  0.75390  Biso   1.000  H
  H18      1.0000 0.39310  0.10400  0.72360  Biso   1.000  H
  C13      1.0000 0.22420  0.52230  0.65280  Biso   1.000  C
  C14      1.0000 0.37200  0.40480  0.64240  Biso   1.000  C
  H19      1.0000 0.38150  0.35560  0.59760  Biso   1.000  H
  H20      1.0000 0.37480  0.34900  0.69660  Biso   1.000  H
  C15      1.0000 0.06460  0.82260  0.38400  Biso   1.000  C
  H21      1.0000 0.10290  0.87030  0.40210  Biso   1.000  H
  C16      1.0000 0.07320  0.83100  0.29850  Biso   1.000  C
  H22      1.0000 0.12000  0.88090  0.25880  Biso   1.000  H
  C17      1.0000 0.01220  0.76510  0.27000  Biso   1.000  C
  C18      1.0000 0.95260  0.68830  0.33200  Biso   1.000  C
  H23      1.0000 0.91500  0.63870  0.31540  Biso   1.000  H
  C19      1.0000 0.94780  0.68360  0.41640  Biso   1.000  C
  H24      1.0000 0.90380  0.63280  0.45730  Biso   1.000  H
  C20      1.0000 0.01860  0.77350  0.17450  Biso   1.000  C
  H25      1.0000 0.97360  0.86540  0.15550  Biso   1.000  H
  H26      1.0000 0.12450  0.74260  0.14450  Biso   1.000  H
  C21      1.0000 0.96200  0.71850  0.14420  Biso   1.000  C
  H27      1.0000 0.85590  0.74710  0.17390  Biso   1.000  H
  H28      1.0000 0.00920  0.62560  0.15970  Biso   1.000  H
  C22      1.0000 0.97300  0.73900  0.04710  Biso   1.000  C
  C23      1.0000 0.90600  0.68980  0.94330  Biso   1.000  C
  H29      1.0000 0.85920  0.64500  0.93000  Biso   1.000  H
  C24      1.0000 0.06000  0.78480  0.89930  Biso   1.000  C
  H30      1.0000 0.10480  0.83440  0.85770  Biso   1.000  H
  C25      1.0000 0.07700  0.76700  0.98200  Biso   1.000  C
  H31      1.0000 0.15800  0.77390  0.99300  Biso   1.000  H
  C26      1.0000 0.88400  0.69900  0.02960  Biso   1.000  C
  H32      1.0000 0.81110  0.67780  0.07260  Biso   1.000  H
  Cu3      1.0000 0.99670  0.26071  0.42172  Biso   1.000  Cu
  Cu4      1.0000 0.01212  0.26488  0.25614  Biso   1.000  Cu
  O9       1.0000 0.85220  0.18090  0.44400  Biso   1.000  O
  O10      1.0000 0.87120  0.17750  0.30320  Biso   1.000  O
  O11      1.0000 0.14360  0.34130  0.37500  Biso   1.000  O
  O12      1.0000 0.15180  0.35100  0.23500  Biso   1.000  O
  O13      1.0000 0.18830  0.09600  0.25980  Biso   1.000  O
  O14      1.0000 0.16870  0.09130  0.40070  Biso   1.000  O
  O15      1.0000 0.82690  0.43050  0.41370  Biso   1.000  O
  O16      1.0000 0.83780  0.43460  0.27430  Biso   1.000  O
  N3       1.0000 0.99530  0.24950  0.55680  Biso   1.000  N
  N4       1.0000 0.01270  0.26160  0.12400  Biso   1.000  N
  C27      1.0000 0.81430  0.15880  0.38330  Biso   1.000  C
  C28      1.0000 0.69480  0.10660  0.40970  Biso   1.000  C
  H33      1.0000 0.72530  0.03010  0.45040  Biso   1.000  H
  H34      1.0000 0.60270  0.17130  0.44060  Biso   1.000  H
  C29      1.0000 0.65950  0.07050  0.33760  Biso   1.000  C
  H35      1.0000 0.63310  0.14570  0.29550  Biso   1.000  H
  H36      1.0000 0.75010  0.00260  0.30840  Biso   1.000  H
  C30      1.0000 0.53260  0.02340  0.36590  Biso   1.000  C
  H37      1.0000 0.43870  0.09530  0.38730  Biso   1.000  H
  H38      1.0000 0.55170  0.95610  0.41390  Biso   1.000  H
  C31      1.0000 0.19560  0.36490  0.29530  Biso   1.000  C
  C32      1.0000 0.32050  0.41170  0.27000  Biso   1.000  C
  H39      1.0000 0.29680  0.48520  0.22630  Biso   1.000  H
  H40      1.0000 0.41260  0.34290  0.24290  Biso   1.000  H
  C33      1.0000 0.35120  0.45230  0.34240  Biso   1.000  C
  H41      1.0000 0.25920  0.51980  0.37090  Biso   1.000  H
  H42      1.0000 0.37960  0.37840  0.38530  Biso   1.000  H
  C34      1.0000 0.47540  0.50280  0.31130  Biso   1.000  C
  H43      1.0000 0.56960  0.43310  0.28720  Biso   1.000  H
  H44      1.0000 0.45120  0.57220  0.26510  Biso   1.000  H
  C35      1.0000 0.49620  0.55290  0.38250  Biso   1.000  C
  H45      1.0000 0.40380  0.62660  0.40310  Biso   1.000  H
  H46      1.0000 0.51090  0.48550  0.43060  Biso   1.000  H
  C36      1.0000 0.23350  0.04810  0.32860  Biso   1.000  C
  C37      1.0000 0.38110  0.92890  0.31970  Biso   1.000  C
  H47      1.0000 0.38220  0.87400  0.37430  Biso   1.000  H
  H48      1.0000 0.39120  0.87920  0.27500  Biso   1.000  H
  C38      1.0000 0.51440  0.97060  0.29530  Biso   1.000  C
  H49      1.0000 0.50200  0.03630  0.24610  Biso   1.000  H
  H50      1.0000 0.60690  0.89600  0.27640  Biso   1.000  H
  C39      1.0000 0.77580  0.47770  0.34720  Biso   1.000  C
  C40      1.0000 0.62800  0.59520  0.35760  Biso   1.000  C
  H51      1.0000 0.61850  0.64440  0.40240  Biso   1.000  H
  H52      1.0000 0.62520  0.65100  0.30340  Biso   1.000  H
  C41      1.0000 0.93540  0.17740  0.61600  Biso   1.000  C
  H53      1.0000 0.89710  0.12970  0.59790  Biso   1.000  H
  C42      1.0000 0.92680  0.16900  0.70150  Biso   1.000  C
  H54      1.0000 0.88000  0.11910  0.74120  Biso   1.000  H
  C43      1.0000 0.98780  0.23490  0.73000  Biso   1.000  C
  C44      1.0000 0.04740  0.31170  0.66800  Biso   1.000  C
  H55      1.0000 0.08500  0.36130  0.68460  Biso   1.000  H
  C45      1.0000 0.05220  0.31640  0.58360  Biso   1.000  C
  H56      1.0000 0.09620  0.36720  0.54270  Biso   1.000  H
  C46      1.0000 0.98140  0.22650  0.82550  Biso   1.000  C
  H57      1.0000 0.02640  0.13460  0.84450  Biso   1.000  H
  H58      1.0000 0.87550  0.25740  0.85550  Biso   1.000  H
  C47      1.0000 0.03800  0.28150  0.85580  Biso   1.000  C
  H59      1.0000 0.14410  0.25290  0.82610  Biso   1.000  H
  H60      1.0000 0.99080  0.37440  0.84030  Biso   1.000  H
  C48      1.0000 0.02700  0.26100  0.95290  Biso   1.000  C
  C49      1.0000 0.09400  0.31020  0.05670  Biso   1.000  C
  H61      1.0000 0.14080  0.35500  0.07000  Biso   1.000  H
  C50      1.0000 0.94000  0.21520  0.10070  Biso   1.000  C
  H62      1.0000 0.89520  0.16560  0.14230  Biso   1.000  H
  C51      1.0000 0.92300  0.23300  0.01800  Biso   1.000  C
  H63      1.0000 0.84200  0.22610  0.00700  Biso   1.000  H
  C52      1.0000 0.11600  0.30100  0.97040  Biso   1.000  C
  H64      1.0000 0.18890  0.32220  0.92740  Biso   1.000  H
