data_image0
_cell_length_a       18.599
_cell_length_b       18.599
_cell_length_c       17.362
_cell_angle_alpha    90
_cell_angle_beta     90
_cell_angle_gamma    90

_symmetry_space_group_name_H-M    "P 1"
_symmetry_int_tables_number       1

loop_
  _symmetry_equiv_pos_as_xyz
  'x, y, z'

loop_
  _atom_site_label
  _atom_site_occupancy
  _atom_site_fract_x
  _atom_site_fract_y
  _atom_site_fract_z
  _atom_site_thermal_displace_type
  _atom_site_B_iso_or_equiv
  _atom_site_type_symbol
  La1      1.0000 0.37368  0.29034  0.16411  Biso   1.000  La
  P1       1.0000 0.17741  0.32473  0.22408  Biso   1.000  P
  P2       1.0000 0.22006  0.61393  0.16483  Biso   1.000  P
  P3       1.0000 0.38343  0.21971  0.37137  Biso   1.000  P
  P4       1.0000 0.25480  0.95990  0.43804  Biso   1.000  P
  P5       1.0000 0.53625  0.24397  0.03470  Biso   1.000  P
  O1       1.0000 0.18210  0.31600  0.31330  Biso   1.000  O
  H1       1.0000 0.14510  0.33370  0.33370  Biso   1.000  H
  O2       1.0000 0.12350  0.26900  0.19920  Biso   1.000  O
  O3       1.0000 0.24930  0.31980  0.18710  Biso   1.000  O
  O4       1.0000 0.25310  0.63840  0.24400  Biso   1.000  O
  H2       1.0000 0.29620  0.65040  0.23760  Biso   1.000  H
  O5       1.0000 0.28150  0.58750  0.11640  Biso   1.000  O
  O6       1.0000 0.17540  0.67340  0.13270  Biso   1.000  O
  O7       1.0000 0.35300  0.22770  0.29090  Biso   1.000  O
  O8       1.0000 0.32940  0.25090  0.43280  Biso   1.000  O
  H3       1.0000 0.28880  0.23190  0.42670  Biso   1.000  H
  O9       1.0000 0.45510  0.25550  0.38250  Biso   1.000  O
  O10      1.0000 0.18830  0.01620  0.42430  Biso   1.000  O
  O11      1.0000 0.25110  0.94240  0.52290  Biso   1.000  O
  O12      1.0000 0.24070  0.89780  0.38740  Biso   1.000  O
  O13      1.0000 0.20440  0.00180  0.48680  Biso   1.000  O
  O14      1.0000 0.29160  0.90350  0.49980  Biso   1.000  O
  O15      1.0000 0.23200  0.92030  0.37280  Biso   1.000  O
  O16      1.0000 0.47000  0.24120  0.08180  Biso   1.000  O
  O17      1.0000 0.52700  0.28510  0.95740  Biso   1.000  O
  H4       1.0000 0.55640  0.31930  0.95560  Biso   1.000  H
  O18      1.0000 0.60140  0.28150  0.07290  Biso   1.000  O
  H5       1.0000 0.63950  0.26780  0.05140  Biso   1.000  H
  C1       1.0000 0.14200  0.41360  0.20940  Biso   1.000  C
  C2       1.0000 0.18800  0.47050  0.19640  Biso   1.000  C
  H6       1.0000 0.23850  0.46270  0.19560  Biso   1.000  H
  C3       1.0000 0.16060  0.53990  0.18430  Biso   1.000  C
  C4       1.0000 0.08700  0.55030  0.18500  Biso   1.000  C
  H7       1.0000 0.06830  0.59700  0.17550  Biso   1.000  H
  C5       1.0000 0.03900  0.49310  0.19950  Biso   1.000  C
  C6       1.0000 0.06870  0.42450  0.21170  Biso   1.000  C
  H8       1.0000 0.03770  0.38500  0.22170  Biso   1.000  H
  C7       1.0000 0.38980  0.12460  0.39170  Biso   1.000  C
  C8       1.0000 0.33000  0.08490  0.40720  Biso   1.000  C
  H9       1.0000 0.28470  0.10810  0.41100  Biso   1.000  H
  C9       1.0000 0.33450  0.01100  0.41740  Biso   1.000  C
  C10      1.0000 0.40000  0.97840  0.41420  Biso   1.000  C
  H10      1.0000 0.40290  0.92780  0.42120  Biso   1.000  H
  C11      1.0000 0.46430  0.01780  0.40060  Biso   1.000  C
  C12      1.0000 0.45690  0.09200  0.38880  Biso   1.000  C
  H11      1.0000 0.49830  0.12040  0.37860  Biso   1.000  H
  C13      1.0000 0.56330  0.15280  0.01400  Biso   1.000  C
  C14      1.0000 0.51130  0.10050  0.01510  Biso   1.000  C
  H12      1.0000 0.46300  0.11340  0.02620  Biso   1.000  H
  La2      1.0000 0.62632  0.70966  0.16411  Biso   1.000  La
  P6       1.0000 0.82259  0.67527  0.22408  Biso   1.000  P
  P7       1.0000 0.77994  0.38607  0.16483  Biso   1.000  P
  P8       1.0000 0.61657  0.78029  0.37137  Biso   1.000  P
  P9       1.0000 0.74520  0.04010  0.43804  Biso   1.000  P
  P10      1.0000 0.46375  0.75603  0.03470  Biso   1.000  P
  O19      1.0000 0.81790  0.68400  0.31330  Biso   1.000  O
  H13      1.0000 0.85490  0.66630  0.33370  Biso   1.000  H
  O20      1.0000 0.87650  0.73100  0.19920  Biso   1.000  O
  O21      1.0000 0.75070  0.68020  0.18710  Biso   1.000  O
  O22      1.0000 0.74690  0.36160  0.24400  Biso   1.000  O
  H14      1.0000 0.70380  0.34960  0.23760  Biso   1.000  H
  O23      1.0000 0.71850  0.41250  0.11640  Biso   1.000  O
  O24      1.0000 0.82460  0.32660  0.13270  Biso   1.000  O
  O25      1.0000 0.64700  0.77230  0.29090  Biso   1.000  O
  O26      1.0000 0.67060  0.74910  0.43280  Biso   1.000  O
  H15      1.0000 0.71120  0.76810  0.42670  Biso   1.000  H
  O27      1.0000 0.54490  0.74450  0.38250  Biso   1.000  O
  O28      1.0000 0.81170  0.98380  0.42430  Biso   1.000  O
  O29      1.0000 0.74890  0.05760  0.52290  Biso   1.000  O
  O30      1.0000 0.75930  0.10220  0.38740  Biso   1.000  O
  O31      1.0000 0.79560  0.99820  0.48680  Biso   1.000  O
  O32      1.0000 0.70840  0.09650  0.49980  Biso   1.000  O
  O33      1.0000 0.76800  0.07970  0.37280  Biso   1.000  O
  O34      1.0000 0.53000  0.75880  0.08180  Biso   1.000  O
  O35      1.0000 0.47300  0.71490  0.95740  Biso   1.000  O
  H16      1.0000 0.44360  0.68070  0.95560  Biso   1.000  H
  O36      1.0000 0.39860  0.71850  0.07290  Biso   1.000  O
  H17      1.0000 0.36050  0.73220  0.05140  Biso   1.000  H
  C15      1.0000 0.85800  0.58640  0.20940  Biso   1.000  C
  C16      1.0000 0.81200  0.52950  0.19640  Biso   1.000  C
  H18      1.0000 0.76150  0.53730  0.19560  Biso   1.000  H
  C17      1.0000 0.83940  0.46010  0.18430  Biso   1.000  C
  C18      1.0000 0.91300  0.44970  0.18500  Biso   1.000  C
  H19      1.0000 0.93170  0.40300  0.17550  Biso   1.000  H
  C19      1.0000 0.96100  0.50690  0.19950  Biso   1.000  C
  C20      1.0000 0.93130  0.57550  0.21170  Biso   1.000  C
  H20      1.0000 0.96230  0.61500  0.22170  Biso   1.000  H
  C21      1.0000 0.61020  0.87540  0.39170  Biso   1.000  C
  C22      1.0000 0.67000  0.91510  0.40720  Biso   1.000  C
  H21      1.0000 0.71530  0.89190  0.41100  Biso   1.000  H
  C23      1.0000 0.66550  0.98900  0.41740  Biso   1.000  C
  C24      1.0000 0.60000  0.02160  0.41420  Biso   1.000  C
  H22      1.0000 0.59710  0.07220  0.42120  Biso   1.000  H
  C25      1.0000 0.53570  0.98220  0.40060  Biso   1.000  C
  C26      1.0000 0.54310  0.90800  0.38880  Biso   1.000  C
  H23      1.0000 0.50170  0.87960  0.37860  Biso   1.000  H
  C27      1.0000 0.43670  0.84720  0.01400  Biso   1.000  C
  C28      1.0000 0.48870  0.89950  0.01510  Biso   1.000  C
  H24      1.0000 0.53700  0.88660  0.02620  Biso   1.000  H
  La3      1.0000 0.29034  0.62632  0.83589  Biso   1.000  La
  P11      1.0000 0.32473  0.82259  0.77592  Biso   1.000  P
  P12      1.0000 0.61393  0.77994  0.83517  Biso   1.000  P
  P13      1.0000 0.21971  0.61657  0.62863  Biso   1.000  P
  P14      1.0000 0.95990  0.74520  0.56196  Biso   1.000  P
  P15      1.0000 0.24397  0.46375  0.96530  Biso   1.000  P
  O37      1.0000 0.31600  0.81790  0.68670  Biso   1.000  O
  H25      1.0000 0.33370  0.85490  0.66630  Biso   1.000  H
  O38      1.0000 0.26900  0.87650  0.80080  Biso   1.000  O
  O39      1.0000 0.31980  0.75070  0.81290  Biso   1.000  O
  O40      1.0000 0.63840  0.74690  0.75600  Biso   1.000  O
  H26      1.0000 0.65040  0.70380  0.76240  Biso   1.000  H
  O41      1.0000 0.58750  0.71850  0.88360  Biso   1.000  O
  O42      1.0000 0.67340  0.82460  0.86730  Biso   1.000  O
  O43      1.0000 0.22770  0.64700  0.70910  Biso   1.000  O
  O44      1.0000 0.25090  0.67060  0.56720  Biso   1.000  O
  H27      1.0000 0.23190  0.71120  0.57330  Biso   1.000  H
  O45      1.0000 0.25550  0.54490  0.61750  Biso   1.000  O
  O46      1.0000 0.01620  0.81170  0.57570  Biso   1.000  O
  O47      1.0000 0.94240  0.74890  0.47710  Biso   1.000  O
  O48      1.0000 0.89780  0.75930  0.61260  Biso   1.000  O
  O49      1.0000 0.00180  0.79560  0.51320  Biso   1.000  O
  O50      1.0000 0.90350  0.70840  0.50020  Biso   1.000  O
  O51      1.0000 0.92030  0.76800  0.62720  Biso   1.000  O
  O52      1.0000 0.24120  0.53000  0.91820  Biso   1.000  O
  O53      1.0000 0.28510  0.47300  0.04260  Biso   1.000  O
  H28      1.0000 0.31930  0.44360  0.04440  Biso   1.000  H
  O54      1.0000 0.28150  0.39860  0.92710  Biso   1.000  O
  H29      1.0000 0.26780  0.36050  0.94860  Biso   1.000  H
  C29      1.0000 0.41360  0.85800  0.79060  Biso   1.000  C
  C30      1.0000 0.47050  0.81200  0.80360  Biso   1.000  C
  H30      1.0000 0.46270  0.76150  0.80440  Biso   1.000  H
  C31      1.0000 0.53990  0.83940  0.81570  Biso   1.000  C
  C32      1.0000 0.55030  0.91300  0.81500  Biso   1.000  C
  H31      1.0000 0.59700  0.93170  0.82450  Biso   1.000  H
  C33      1.0000 0.49310  0.96100  0.80050  Biso   1.000  C
  C34      1.0000 0.42450  0.93130  0.78830  Biso   1.000  C
  H32      1.0000 0.38500  0.96230  0.77830  Biso   1.000  H
  C35      1.0000 0.12460  0.61020  0.60830  Biso   1.000  C
  C36      1.0000 0.08490  0.67000  0.59280  Biso   1.000  C
  H33      1.0000 0.10810  0.71530  0.58900  Biso   1.000  H
  C37      1.0000 0.01100  0.66550  0.58260  Biso   1.000  C
  C38      1.0000 0.97840  0.60000  0.58580  Biso   1.000  C
  H34      1.0000 0.92780  0.59710  0.57880  Biso   1.000  H
  C39      1.0000 0.01780  0.53570  0.59940  Biso   1.000  C
  C40      1.0000 0.09200  0.54310  0.61120  Biso   1.000  C
  H35      1.0000 0.12040  0.50170  0.62140  Biso   1.000  H
  C41      1.0000 0.15280  0.43670  0.98600  Biso   1.000  C
  C42      1.0000 0.10050  0.48870  0.98490  Biso   1.000  C
  H36      1.0000 0.11340  0.53700  0.97380  Biso   1.000  H
  La4      1.0000 0.70966  0.37368  0.83589  Biso   1.000  La
  P16      1.0000 0.67527  0.17741  0.77592  Biso   1.000  P
  P17      1.0000 0.38607  0.22006  0.83517  Biso   1.000  P
  P18      1.0000 0.78029  0.38343  0.62863  Biso   1.000  P
  P19      1.0000 0.04010  0.25480  0.56196  Biso   1.000  P
  P20      1.0000 0.75603  0.53625  0.96530  Biso   1.000  P
  O55      1.0000 0.68400  0.18210  0.68670  Biso   1.000  O
  H37      1.0000 0.66630  0.14510  0.66630  Biso   1.000  H
  O56      1.0000 0.73100  0.12350  0.80080  Biso   1.000  O
  O57      1.0000 0.68020  0.24930  0.81290  Biso   1.000  O
  O58      1.0000 0.36160  0.25310  0.75600  Biso   1.000  O
  H38      1.0000 0.34960  0.29620  0.76240  Biso   1.000  H
  O59      1.0000 0.41250  0.28150  0.88360  Biso   1.000  O
  O60      1.0000 0.32660  0.17540  0.86730  Biso   1.000  O
  O61      1.0000 0.77230  0.35300  0.70910  Biso   1.000  O
  O62      1.0000 0.74910  0.32940  0.56720  Biso   1.000  O
  H39      1.0000 0.76810  0.28880  0.57330  Biso   1.000  H
  O63      1.0000 0.74450  0.45510  0.61750  Biso   1.000  O
  O64      1.0000 0.98380  0.18830  0.57570  Biso   1.000  O
  O65      1.0000 0.05760  0.25110  0.47710  Biso   1.000  O
  O66      1.0000 0.10220  0.24070  0.61260  Biso   1.000  O
  O67      1.0000 0.99820  0.20440  0.51320  Biso   1.000  O
  O68      1.0000 0.09650  0.29160  0.50020  Biso   1.000  O
  O69      1.0000 0.07970  0.23200  0.62720  Biso   1.000  O
  O70      1.0000 0.75880  0.47000  0.91820  Biso   1.000  O
  O71      1.0000 0.71490  0.52700  0.04260  Biso   1.000  O
  H40      1.0000 0.68070  0.55640  0.04440  Biso   1.000  H
  O72      1.0000 0.71850  0.60140  0.92710  Biso   1.000  O
  H41      1.0000 0.73220  0.63950  0.94860  Biso   1.000  H
  C43      1.0000 0.58640  0.14200  0.79060  Biso   1.000  C
  C44      1.0000 0.52950  0.18800  0.80360  Biso   1.000  C
  H42      1.0000 0.53730  0.23850  0.80440  Biso   1.000  H
  C45      1.0000 0.46010  0.16060  0.81570  Biso   1.000  C
  C46      1.0000 0.44970  0.08700  0.81500  Biso   1.000  C
  H43      1.0000 0.40300  0.06830  0.82450  Biso   1.000  H
  C47      1.0000 0.50690  0.03900  0.80050  Biso   1.000  C
  C48      1.0000 0.57550  0.06870  0.78830  Biso   1.000  C
  H44      1.0000 0.61500  0.03770  0.77830  Biso   1.000  H
  C49      1.0000 0.87540  0.38980  0.60830  Biso   1.000  C
  C50      1.0000 0.91510  0.33000  0.59280  Biso   1.000  C
  H45      1.0000 0.89190  0.28470  0.58900  Biso   1.000  H
  C51      1.0000 0.98900  0.33450  0.58260  Biso   1.000  C
  C52      1.0000 0.02160  0.40000  0.58580  Biso   1.000  C
  H46      1.0000 0.07220  0.40290  0.57880  Biso   1.000  H
  C53      1.0000 0.98220  0.46430  0.59940  Biso   1.000  C
  C54      1.0000 0.90800  0.45690  0.61120  Biso   1.000  C
  H47      1.0000 0.87960  0.49830  0.62140  Biso   1.000  H
  C55      1.0000 0.84720  0.56330  0.98600  Biso   1.000  C
  C56      1.0000 0.89950  0.51130  0.98490  Biso   1.000  C
  H48      1.0000 0.88660  0.46300  0.97380  Biso   1.000  H
  La5      1.0000 0.87368  0.20966  0.16411  Biso   1.000  La
  P21      1.0000 0.67741  0.17527  0.22408  Biso   1.000  P
  P22      1.0000 0.72006  0.88607  0.16483  Biso   1.000  P
  P23      1.0000 0.88343  0.28029  0.37137  Biso   1.000  P
  P24      1.0000 0.75480  0.54010  0.43804  Biso   1.000  P
  P25      1.0000 0.03625  0.25603  0.03470  Biso   1.000  P
  O73      1.0000 0.68210  0.18400  0.31330  Biso   1.000  O
  H49      1.0000 0.64510  0.16630  0.33370  Biso   1.000  H
  O74      1.0000 0.62350  0.23100  0.19920  Biso   1.000  O
  O75      1.0000 0.74930  0.18020  0.18710  Biso   1.000  O
  O76      1.0000 0.75310  0.86160  0.24400  Biso   1.000  O
  H50      1.0000 0.79620  0.84960  0.23760  Biso   1.000  H
  O77      1.0000 0.78150  0.91250  0.11640  Biso   1.000  O
  O78      1.0000 0.67540  0.82660  0.13270  Biso   1.000  O
  O79      1.0000 0.85300  0.27230  0.29090  Biso   1.000  O
  O80      1.0000 0.82940  0.24910  0.43280  Biso   1.000  O
  H51      1.0000 0.78880  0.26810  0.42670  Biso   1.000  H
  O81      1.0000 0.95510  0.24450  0.38250  Biso   1.000  O
  O82      1.0000 0.68830  0.48380  0.42430  Biso   1.000  O
  O83      1.0000 0.75110  0.55760  0.52290  Biso   1.000  O
  O84      1.0000 0.74070  0.60220  0.38740  Biso   1.000  O
  O85      1.0000 0.70440  0.49820  0.48680  Biso   1.000  O
  O86      1.0000 0.79160  0.59650  0.49980  Biso   1.000  O
  O87      1.0000 0.73200  0.57970  0.37280  Biso   1.000  O
  O88      1.0000 0.97000  0.25880  0.08180  Biso   1.000  O
  O89      1.0000 0.02700  0.21490  0.95740  Biso   1.000  O
  H52      1.0000 0.05640  0.18070  0.95560  Biso   1.000  H
  O90      1.0000 0.10140  0.21850  0.07290  Biso   1.000  O
  H53      1.0000 0.13950  0.23220  0.05140  Biso   1.000  H
  C57      1.0000 0.64200  0.08640  0.20940  Biso   1.000  C
  C58      1.0000 0.68800  0.02950  0.19640  Biso   1.000  C
  H54      1.0000 0.73850  0.03730  0.19560  Biso   1.000  H
  C59      1.0000 0.66060  0.96010  0.18430  Biso   1.000  C
  C60      1.0000 0.58700  0.94970  0.18500  Biso   1.000  C
  H55      1.0000 0.56830  0.90300  0.17550  Biso   1.000  H
  C61      1.0000 0.53900  0.00690  0.19950  Biso   1.000  C
  C62      1.0000 0.56870  0.07550  0.21170  Biso   1.000  C
  H56      1.0000 0.53770  0.11500  0.22170  Biso   1.000  H
  C63      1.0000 0.88980  0.37540  0.39170  Biso   1.000  C
  C64      1.0000 0.83000  0.41510  0.40720  Biso   1.000  C
  H57      1.0000 0.78470  0.39190  0.41100  Biso   1.000  H
  C65      1.0000 0.83450  0.48900  0.41740  Biso   1.000  C
  C66      1.0000 0.90000  0.52160  0.41420  Biso   1.000  C
  H58      1.0000 0.90290  0.57220  0.42120  Biso   1.000  H
  C67      1.0000 0.96430  0.48220  0.40060  Biso   1.000  C
  C68      1.0000 0.95690  0.40800  0.38880  Biso   1.000  C
  H59      1.0000 0.99830  0.37960  0.37860  Biso   1.000  H
  C69      1.0000 0.06330  0.34720  0.01400  Biso   1.000  C
  C70      1.0000 0.01130  0.39950  0.01510  Biso   1.000  C
  H60      1.0000 0.96300  0.38660  0.02620  Biso   1.000  H
  La6      1.0000 0.12632  0.79034  0.16411  Biso   1.000  La
  P26      1.0000 0.32259  0.82473  0.22408  Biso   1.000  P
  P27      1.0000 0.27994  0.11393  0.16483  Biso   1.000  P
  P28      1.0000 0.11657  0.71971  0.37137  Biso   1.000  P
  P29      1.0000 0.24520  0.45990  0.43804  Biso   1.000  P
  P30      1.0000 0.96375  0.74397  0.03470  Biso   1.000  P
  O91      1.0000 0.31790  0.81600  0.31330  Biso   1.000  O
  H61      1.0000 0.35490  0.83370  0.33370  Biso   1.000  H
  O92      1.0000 0.37650  0.76900  0.19920  Biso   1.000  O
  O93      1.0000 0.25070  0.81980  0.18710  Biso   1.000  O
  O94      1.0000 0.24690  0.13840  0.24400  Biso   1.000  O
  H62      1.0000 0.20380  0.15040  0.23760  Biso   1.000  H
  O95      1.0000 0.21850  0.08750  0.11640  Biso   1.000  O
  O96      1.0000 0.32460  0.17340  0.13270  Biso   1.000  O
  O97      1.0000 0.14700  0.72770  0.29090  Biso   1.000  O
  O98      1.0000 0.17060  0.75090  0.43280  Biso   1.000  O
  H63      1.0000 0.21120  0.73190  0.42670  Biso   1.000  H
  O99      1.0000 0.04490  0.75550  0.38250  Biso   1.000  O
  O100     1.0000 0.31170  0.51620  0.42430  Biso   1.000  O
  O101     1.0000 0.24890  0.44240  0.52290  Biso   1.000  O
  O102     1.0000 0.25930  0.39780  0.38740  Biso   1.000  O
  O103     1.0000 0.29560  0.50180  0.48680  Biso   1.000  O
  O104     1.0000 0.20840  0.40350  0.49980  Biso   1.000  O
  O105     1.0000 0.26800  0.42030  0.37280  Biso   1.000  O
  O106     1.0000 0.03000  0.74120  0.08180  Biso   1.000  O
  O107     1.0000 0.97300  0.78510  0.95740  Biso   1.000  O
  H64      1.0000 0.94360  0.81930  0.95560  Biso   1.000  H
  O108     1.0000 0.89860  0.78150  0.07290  Biso   1.000  O
  H65      1.0000 0.86050  0.76780  0.05140  Biso   1.000  H
  C71      1.0000 0.35800  0.91360  0.20940  Biso   1.000  C
  C72      1.0000 0.31200  0.97050  0.19640  Biso   1.000  C
  H66      1.0000 0.26150  0.96270  0.19560  Biso   1.000  H
  C73      1.0000 0.33940  0.03990  0.18430  Biso   1.000  C
  C74      1.0000 0.41300  0.05030  0.18500  Biso   1.000  C
  H67      1.0000 0.43170  0.09700  0.17550  Biso   1.000  H
  C75      1.0000 0.46100  0.99310  0.19950  Biso   1.000  C
  C76      1.0000 0.43130  0.92450  0.21170  Biso   1.000  C
  H68      1.0000 0.46230  0.88500  0.22170  Biso   1.000  H
  C77      1.0000 0.11020  0.62460  0.39170  Biso   1.000  C
  C78      1.0000 0.17000  0.58490  0.40720  Biso   1.000  C
  H69      1.0000 0.21530  0.60810  0.41100  Biso   1.000  H
  C79      1.0000 0.16550  0.51100  0.41740  Biso   1.000  C
  C80      1.0000 0.10000  0.47840  0.41420  Biso   1.000  C
  H70      1.0000 0.09710  0.42780  0.42120  Biso   1.000  H
  C81      1.0000 0.03570  0.51780  0.40060  Biso   1.000  C
  C82      1.0000 0.04310  0.59200  0.38880  Biso   1.000  C
  H71      1.0000 0.00170  0.62040  0.37860  Biso   1.000  H
  C83      1.0000 0.93670  0.65280  0.01400  Biso   1.000  C
  C84      1.0000 0.98870  0.60050  0.01510  Biso   1.000  C
  H72      1.0000 0.03700  0.61340  0.02620  Biso   1.000  H
  La7      1.0000 0.79034  0.87368  0.83589  Biso   1.000  La
  P31      1.0000 0.82473  0.67741  0.77592  Biso   1.000  P
  P32      1.0000 0.11393  0.72006  0.83517  Biso   1.000  P
  P33      1.0000 0.71971  0.88343  0.62863  Biso   1.000  P
  P34      1.0000 0.45990  0.75480  0.56196  Biso   1.000  P
  P35      1.0000 0.74397  0.03625  0.96530  Biso   1.000  P
  O109     1.0000 0.81600  0.68210  0.68670  Biso   1.000  O
  H73      1.0000 0.83370  0.64510  0.66630  Biso   1.000  H
  O110     1.0000 0.76900  0.62350  0.80080  Biso   1.000  O
  O111     1.0000 0.81980  0.74930  0.81290  Biso   1.000  O
  O112     1.0000 0.13840  0.75310  0.75600  Biso   1.000  O
  H74      1.0000 0.15040  0.79620  0.76240  Biso   1.000  H
  O113     1.0000 0.08750  0.78150  0.88360  Biso   1.000  O
  O114     1.0000 0.17340  0.67540  0.86730  Biso   1.000  O
  O115     1.0000 0.72770  0.85300  0.70910  Biso   1.000  O
  O116     1.0000 0.75090  0.82940  0.56720  Biso   1.000  O
  H75      1.0000 0.73190  0.78880  0.57330  Biso   1.000  H
  O117     1.0000 0.75550  0.95510  0.61750  Biso   1.000  O
  O118     1.0000 0.51620  0.68830  0.57570  Biso   1.000  O
  O119     1.0000 0.44240  0.75110  0.47710  Biso   1.000  O
  O120     1.0000 0.39780  0.74070  0.61260  Biso   1.000  O
  O121     1.0000 0.50180  0.70440  0.51320  Biso   1.000  O
  O122     1.0000 0.40350  0.79160  0.50020  Biso   1.000  O
  O123     1.0000 0.42030  0.73200  0.62720  Biso   1.000  O
  O124     1.0000 0.74120  0.97000  0.91820  Biso   1.000  O
  O125     1.0000 0.78510  0.02700  0.04260  Biso   1.000  O
  H76      1.0000 0.81930  0.05640  0.04440  Biso   1.000  H
  O126     1.0000 0.78150  0.10140  0.92710  Biso   1.000  O
  H77      1.0000 0.76780  0.13950  0.94860  Biso   1.000  H
  C85      1.0000 0.91360  0.64200  0.79060  Biso   1.000  C
  C86      1.0000 0.97050  0.68800  0.80360  Biso   1.000  C
  H78      1.0000 0.96270  0.73850  0.80440  Biso   1.000  H
  C87      1.0000 0.03990  0.66060  0.81570  Biso   1.000  C
  C88      1.0000 0.05030  0.58700  0.81500  Biso   1.000  C
  H79      1.0000 0.09700  0.56830  0.82450  Biso   1.000  H
  C89      1.0000 0.99310  0.53900  0.80050  Biso   1.000  C
  C90      1.0000 0.92450  0.56870  0.78830  Biso   1.000  C
  H80      1.0000 0.88500  0.53770  0.77830  Biso   1.000  H
  C91      1.0000 0.62460  0.88980  0.60830  Biso   1.000  C
  C92      1.0000 0.58490  0.83000  0.59280  Biso   1.000  C
  H81      1.0000 0.60810  0.78470  0.58900  Biso   1.000  H
  C93      1.0000 0.51100  0.83450  0.58260  Biso   1.000  C
  C94      1.0000 0.47840  0.90000  0.58580  Biso   1.000  C
  H82      1.0000 0.42780  0.90290  0.57880  Biso   1.000  H
  C95      1.0000 0.51780  0.96430  0.59940  Biso   1.000  C
  C96      1.0000 0.59200  0.95690  0.61120  Biso   1.000  C
  H83      1.0000 0.62040  0.99830  0.62140  Biso   1.000  H
  C97      1.0000 0.65280  0.06330  0.98600  Biso   1.000  C
  C98      1.0000 0.60050  0.01130  0.98490  Biso   1.000  C
  H84      1.0000 0.61340  0.96300  0.97380  Biso   1.000  H
  La8      1.0000 0.20966  0.12632  0.83589  Biso   1.000  La
  P36      1.0000 0.17527  0.32259  0.77592  Biso   1.000  P
  P37      1.0000 0.88607  0.27994  0.83517  Biso   1.000  P
  P38      1.0000 0.28029  0.11657  0.62863  Biso   1.000  P
  P39      1.0000 0.54010  0.24520  0.56196  Biso   1.000  P
  P40      1.0000 0.25603  0.96375  0.96530  Biso   1.000  P
  O127     1.0000 0.18400  0.31790  0.68670  Biso   1.000  O
  H85      1.0000 0.16630  0.35490  0.66630  Biso   1.000  H
  O128     1.0000 0.23100  0.37650  0.80080  Biso   1.000  O
  O129     1.0000 0.18020  0.25070  0.81290  Biso   1.000  O
  O130     1.0000 0.86160  0.24690  0.75600  Biso   1.000  O
  H86      1.0000 0.84960  0.20380  0.76240  Biso   1.000  H
  O131     1.0000 0.91250  0.21850  0.88360  Biso   1.000  O
  O132     1.0000 0.82660  0.32460  0.86730  Biso   1.000  O
  O133     1.0000 0.27230  0.14700  0.70910  Biso   1.000  O
  O134     1.0000 0.24910  0.17060  0.56720  Biso   1.000  O
  H87      1.0000 0.26810  0.21120  0.57330  Biso   1.000  H
  O135     1.0000 0.24450  0.04490  0.61750  Biso   1.000  O
  O136     1.0000 0.48380  0.31170  0.57570  Biso   1.000  O
  O137     1.0000 0.55760  0.24890  0.47710  Biso   1.000  O
  O138     1.0000 0.60220  0.25930  0.61260  Biso   1.000  O
  O139     1.0000 0.49820  0.29560  0.51320  Biso   1.000  O
  O140     1.0000 0.59650  0.20840  0.50020  Biso   1.000  O
  O141     1.0000 0.57970  0.26800  0.62720  Biso   1.000  O
  O142     1.0000 0.25880  0.03000  0.91820  Biso   1.000  O
  O143     1.0000 0.21490  0.97300  0.04260  Biso   1.000  O
  H88      1.0000 0.18070  0.94360  0.04440  Biso   1.000  H
  O144     1.0000 0.21850  0.89860  0.92710  Biso   1.000  O
  H89      1.0000 0.23220  0.86050  0.94860  Biso   1.000  H
  C99      1.0000 0.08640  0.35800  0.79060  Biso   1.000  C
  C100     1.0000 0.02950  0.31200  0.80360  Biso   1.000  C
  H90      1.0000 0.03730  0.26150  0.80440  Biso   1.000  H
  C101     1.0000 0.96010  0.33940  0.81570  Biso   1.000  C
  C102     1.0000 0.94970  0.41300  0.81500  Biso   1.000  C
  H91      1.0000 0.90300  0.43170  0.82450  Biso   1.000  H
  C103     1.0000 0.00690  0.46100  0.80050  Biso   1.000  C
  C104     1.0000 0.07550  0.43130  0.78830  Biso   1.000  C
  H92      1.0000 0.11500  0.46230  0.77830  Biso   1.000  H
  C105     1.0000 0.37540  0.11020  0.60830  Biso   1.000  C
  C106     1.0000 0.41510  0.17000  0.59280  Biso   1.000  C
  H93      1.0000 0.39190  0.21530  0.58900  Biso   1.000  H
  C107     1.0000 0.48900  0.16550  0.58260  Biso   1.000  C
  C108     1.0000 0.52160  0.10000  0.58580  Biso   1.000  C
  H94      1.0000 0.57220  0.09710  0.57880  Biso   1.000  H
  C109     1.0000 0.48220  0.03570  0.59940  Biso   1.000  C
  C110     1.0000 0.40800  0.04310  0.61120  Biso   1.000  C
  H95      1.0000 0.37960  0.00170  0.62140  Biso   1.000  H
  C111     1.0000 0.34720  0.93670  0.98600  Biso   1.000  C
  C112     1.0000 0.39950  0.98870  0.98490  Biso   1.000  C
  H96      1.0000 0.38660  0.03700  0.97380  Biso   1.000  H
  C113     1.0000 0.52820  0.02820  0.00000  Biso   1.000  C
  C114     1.0000 0.63450  0.13450  0.00000  Biso   1.000  C
  H97      1.0000 0.67060  0.17060  0.00000  Biso   1.000  H
  C115     1.0000 0.47180  0.97180  0.00000  Biso   1.000  C
  C116     1.0000 0.36550  0.86550  0.00000  Biso   1.000  C
  H98      1.0000 0.32940  0.82940  0.00000  Biso   1.000  H
  C117     1.0000 0.02820  0.47180  0.00000  Biso   1.000  C
  C118     1.0000 0.13450  0.36550  0.00000  Biso   1.000  C
  H99      1.0000 0.17060  0.32940  0.00000  Biso   1.000  H
  C119     1.0000 0.97180  0.52820  0.00000  Biso   1.000  C
  C120     1.0000 0.86550  0.63450  0.00000  Biso   1.000  C
  H100     1.0000 0.82940  0.67060  0.00000  Biso   1.000  H
