data_image0
_cell_length_a       12.125
_cell_length_b       15.1043
_cell_length_c       17.8204
_cell_angle_alpha    90
_cell_angle_beta     94.499
_cell_angle_gamma    90

_symmetry_space_group_name_H-M    "P 1"
_symmetry_int_tables_number       1

loop_
  _symmetry_equiv_pos_as_xyz
  'x, y, z'

loop_
  _atom_site_label
  _atom_site_occupancy
  _atom_site_fract_x
  _atom_site_fract_y
  _atom_site_fract_z
  _atom_site_thermal_displace_type
  _atom_site_B_iso_or_equiv
  _atom_site_type_symbol
  O1       1.0000 0.55090  0.62720  0.61463  Biso   1.000  O
  O2       1.0000 0.52230  0.75860  0.66122  Biso   1.000  O
  N1       1.0000 0.16280  0.54350  0.69280  Biso   1.000  N
  N2       1.0000 0.88140  0.63120  0.67458  Biso   1.000  N
  N3       1.0000 0.33890  0.59120  0.70462  Biso   1.000  N
  C1       1.0000 0.54290  0.70830  0.60690  Biso   1.000  C
  C2       1.0000 0.56200  0.74980  0.53250  Biso   1.000  C
  C3       1.0000 0.52930  0.83630  0.51600  Biso   1.000  C
  H1       1.0000 0.49560  0.86950  0.55170  Biso   1.000  H
  C4       1.0000 0.61160  0.70140  0.47830  Biso   1.000  C
  H2       1.0000 0.63200  0.64290  0.48810  Biso   1.000  H
  C5       1.0000 0.23800  0.59320  0.73180  Biso   1.000  C
  C6       1.0000 0.21860  0.50750  0.63670  Biso   1.000  C
  H3       1.0000 0.18880  0.46930  0.59960  Biso   1.000  H
  C7       1.0000 0.32470  0.53670  0.64400  Biso   1.000  C
  H4       1.0000 0.37930  0.52180  0.61240  Biso   1.000  H
  C8       1.0000 0.78720  0.64050  0.70150  Biso   1.000  C
  H5       1.0000 0.73460  0.67810  0.67790  Biso   1.000  H
  C9       1.0000 0.90020  0.67490  0.60590  Biso   1.000  C
  C10      1.0000 0.54670  0.87380  0.44660  Biso   1.000  C
  H6       1.0000 0.52290  0.93120  0.43550  Biso   1.000  H
  C11      1.0000 0.63110  0.73900  0.40960  Biso   1.000  C
  H7       1.0000 0.66540  0.70600  0.37390  Biso   1.000  H
  O3       1.0000 0.44910  0.62720  0.88537  Biso   1.000  O
  O4       1.0000 0.47770  0.75860  0.83878  Biso   1.000  O
  N4       1.0000 0.83720  0.54350  0.80720  Biso   1.000  N
  N5       1.0000 0.11860  0.63120  0.82542  Biso   1.000  N
  N6       1.0000 0.66110  0.59120  0.79538  Biso   1.000  N
  C12      1.0000 0.45710  0.70830  0.89310  Biso   1.000  C
  C13      1.0000 0.43800  0.74980  0.96750  Biso   1.000  C
  C14      1.0000 0.47070  0.83630  0.98400  Biso   1.000  C
  H8       1.0000 0.50440  0.86950  0.94830  Biso   1.000  H
  C15      1.0000 0.38840  0.70140  0.02170  Biso   1.000  C
  H9       1.0000 0.36800  0.64290  0.01190  Biso   1.000  H
  C16      1.0000 0.76200  0.59320  0.76820  Biso   1.000  C
  C17      1.0000 0.78140  0.50750  0.86330  Biso   1.000  C
  H10      1.0000 0.81120  0.46930  0.90040  Biso   1.000  H
  C18      1.0000 0.67530  0.53670  0.85600  Biso   1.000  C
  H11      1.0000 0.62070  0.52180  0.88760  Biso   1.000  H
  C19      1.0000 0.21280  0.64050  0.79850  Biso   1.000  C
  H12      1.0000 0.26540  0.67810  0.82210  Biso   1.000  H
  C20      1.0000 0.09980  0.67490  0.89410  Biso   1.000  C
  C21      1.0000 0.45330  0.87380  0.05340  Biso   1.000  C
  H13      1.0000 0.47710  0.93120  0.06450  Biso   1.000  H
  C22      1.0000 0.36890  0.73900  0.09040  Biso   1.000  C
  H14      1.0000 0.33460  0.70600  0.12610  Biso   1.000  H
  O5       1.0000 0.94910  0.87280  0.38537  Biso   1.000  O
  O6       1.0000 0.97770  0.74140  0.33878  Biso   1.000  O
  N7       1.0000 0.33720  0.95650  0.30720  Biso   1.000  N
  N8       1.0000 0.61860  0.86880  0.32542  Biso   1.000  N
  N9       1.0000 0.16110  0.90880  0.29538  Biso   1.000  N
  C23      1.0000 0.95710  0.79170  0.39310  Biso   1.000  C
  C24      1.0000 0.93800  0.75020  0.46750  Biso   1.000  C
  C25      1.0000 0.97070  0.66370  0.48400  Biso   1.000  C
  H15      1.0000 0.00440  0.63050  0.44830  Biso   1.000  H
  C26      1.0000 0.88840  0.79860  0.52170  Biso   1.000  C
  H16      1.0000 0.86800  0.85710  0.51190  Biso   1.000  H
  C27      1.0000 0.26200  0.90680  0.26820  Biso   1.000  C
  C28      1.0000 0.28140  0.99250  0.36330  Biso   1.000  C
  H17      1.0000 0.31120  0.03070  0.40040  Biso   1.000  H
  C29      1.0000 0.17530  0.96330  0.35600  Biso   1.000  C
  H18      1.0000 0.12070  0.97820  0.38760  Biso   1.000  H
  C30      1.0000 0.71280  0.85950  0.29850  Biso   1.000  C
  H19      1.0000 0.76540  0.82190  0.32210  Biso   1.000  H
  C31      1.0000 0.59980  0.82510  0.39410  Biso   1.000  C
  C32      1.0000 0.95330  0.62620  0.55340  Biso   1.000  C
  H20      1.0000 0.97710  0.56880  0.56450  Biso   1.000  H
  C33      1.0000 0.86890  0.76100  0.59040  Biso   1.000  C
  H21      1.0000 0.83460  0.79400  0.62610  Biso   1.000  H
  O7       1.0000 0.05090  0.87280  0.11463  Biso   1.000  O
  O8       1.0000 0.02230  0.74140  0.16122  Biso   1.000  O
  N10      1.0000 0.66280  0.95650  0.19280  Biso   1.000  N
  N11      1.0000 0.38140  0.86880  0.17458  Biso   1.000  N
  N12      1.0000 0.83890  0.90880  0.20462  Biso   1.000  N
  C34      1.0000 0.04290  0.79170  0.10690  Biso   1.000  C
  C35      1.0000 0.06200  0.75020  0.03250  Biso   1.000  C
  C36      1.0000 0.02930  0.66370  0.01600  Biso   1.000  C
  H22      1.0000 0.99560  0.63050  0.05170  Biso   1.000  H
  C37      1.0000 0.11160  0.79860  0.97830  Biso   1.000  C
  H23      1.0000 0.13200  0.85710  0.98810  Biso   1.000  H
  C38      1.0000 0.73800  0.90680  0.23180  Biso   1.000  C
  C39      1.0000 0.71860  0.99250  0.13670  Biso   1.000  C
  H24      1.0000 0.68880  0.03070  0.09960  Biso   1.000  H
  C40      1.0000 0.82470  0.96330  0.14400  Biso   1.000  C
  H25      1.0000 0.87930  0.97820  0.11240  Biso   1.000  H
  C41      1.0000 0.28720  0.85950  0.20150  Biso   1.000  C
  H26      1.0000 0.23460  0.82190  0.17790  Biso   1.000  H
  C42      1.0000 0.40020  0.82510  0.10590  Biso   1.000  C
  C43      1.0000 0.04670  0.62620  0.94660  Biso   1.000  C
  H27      1.0000 0.02290  0.56880  0.93550  Biso   1.000  H
  C44      1.0000 0.13110  0.76100  0.90960  Biso   1.000  C
  H28      1.0000 0.16540  0.79400  0.87390  Biso   1.000  H
  Cd1      1.0000 0.50000  0.65004  0.75000  Biso   1.000  Cd
  Cd2      1.0000 0.00000  0.84996  0.25000  Biso   1.000  Cd
  Cd3      1.0000 0.00000  0.53313  0.75000  Biso   1.000  Cd
  Cd4      1.0000 0.50000  0.96687  0.25000  Biso   1.000  Cd
  O9       1.0000 0.05090  0.12720  0.61463  Biso   1.000  O
  O10      1.0000 0.02230  0.25860  0.66122  Biso   1.000  O
  N13      1.0000 0.66280  0.04350  0.69280  Biso   1.000  N
  N14      1.0000 0.38140  0.13120  0.67458  Biso   1.000  N
  N15      1.0000 0.83890  0.09120  0.70462  Biso   1.000  N
  C45      1.0000 0.04290  0.20830  0.60690  Biso   1.000  C
  C46      1.0000 0.06200  0.24980  0.53250  Biso   1.000  C
  C47      1.0000 0.02930  0.33630  0.51600  Biso   1.000  C
  H29      1.0000 0.99560  0.36950  0.55170  Biso   1.000  H
  C48      1.0000 0.11160  0.20140  0.47830  Biso   1.000  C
  H30      1.0000 0.13200  0.14290  0.48810  Biso   1.000  H
  C49      1.0000 0.73800  0.09320  0.73180  Biso   1.000  C
  C50      1.0000 0.71860  0.00750  0.63670  Biso   1.000  C
  H31      1.0000 0.68880  0.96930  0.59960  Biso   1.000  H
  C51      1.0000 0.82470  0.03670  0.64400  Biso   1.000  C
  H32      1.0000 0.87930  0.02180  0.61240  Biso   1.000  H
  C52      1.0000 0.28720  0.14050  0.70150  Biso   1.000  C
  H33      1.0000 0.23460  0.17810  0.67790  Biso   1.000  H
  C53      1.0000 0.40020  0.17490  0.60590  Biso   1.000  C
  C54      1.0000 0.04670  0.37380  0.44660  Biso   1.000  C
  H34      1.0000 0.02290  0.43120  0.43550  Biso   1.000  H
  C55      1.0000 0.13110  0.23900  0.40960  Biso   1.000  C
  H35      1.0000 0.16540  0.20600  0.37390  Biso   1.000  H
  O11      1.0000 0.94910  0.12720  0.88537  Biso   1.000  O
  O12      1.0000 0.97770  0.25860  0.83878  Biso   1.000  O
  N16      1.0000 0.33720  0.04350  0.80720  Biso   1.000  N
  N17      1.0000 0.61860  0.13120  0.82542  Biso   1.000  N
  N18      1.0000 0.16110  0.09120  0.79538  Biso   1.000  N
  C56      1.0000 0.95710  0.20830  0.89310  Biso   1.000  C
  C57      1.0000 0.93800  0.24980  0.96750  Biso   1.000  C
  C58      1.0000 0.97070  0.33630  0.98400  Biso   1.000  C
  H36      1.0000 0.00440  0.36950  0.94830  Biso   1.000  H
  C59      1.0000 0.88840  0.20140  0.02170  Biso   1.000  C
  H37      1.0000 0.86800  0.14290  0.01190  Biso   1.000  H
  C60      1.0000 0.26200  0.09320  0.76820  Biso   1.000  C
  C61      1.0000 0.28140  0.00750  0.86330  Biso   1.000  C
  H38      1.0000 0.31120  0.96930  0.90040  Biso   1.000  H
  C62      1.0000 0.17530  0.03670  0.85600  Biso   1.000  C
  H39      1.0000 0.12070  0.02180  0.88760  Biso   1.000  H
  C63      1.0000 0.71280  0.14050  0.79850  Biso   1.000  C
  H40      1.0000 0.76540  0.17810  0.82210  Biso   1.000  H
  C64      1.0000 0.59980  0.17490  0.89410  Biso   1.000  C
  C65      1.0000 0.95330  0.37380  0.05340  Biso   1.000  C
  H41      1.0000 0.97710  0.43120  0.06450  Biso   1.000  H
  C66      1.0000 0.86890  0.23900  0.09040  Biso   1.000  C
  H42      1.0000 0.83460  0.20600  0.12610  Biso   1.000  H
  O13      1.0000 0.44910  0.37280  0.38537  Biso   1.000  O
  O14      1.0000 0.47770  0.24140  0.33878  Biso   1.000  O
  N19      1.0000 0.83720  0.45650  0.30720  Biso   1.000  N
  N20      1.0000 0.11860  0.36880  0.32542  Biso   1.000  N
  N21      1.0000 0.66110  0.40880  0.29538  Biso   1.000  N
  C67      1.0000 0.45710  0.29170  0.39310  Biso   1.000  C
  C68      1.0000 0.43800  0.25020  0.46750  Biso   1.000  C
  C69      1.0000 0.47070  0.16370  0.48400  Biso   1.000  C
  H43      1.0000 0.50440  0.13050  0.44830  Biso   1.000  H
  C70      1.0000 0.38840  0.29860  0.52170  Biso   1.000  C
  H44      1.0000 0.36800  0.35710  0.51190  Biso   1.000  H
  C71      1.0000 0.76200  0.40680  0.26820  Biso   1.000  C
  C72      1.0000 0.78140  0.49250  0.36330  Biso   1.000  C
  H45      1.0000 0.81120  0.53070  0.40040  Biso   1.000  H
  C73      1.0000 0.67530  0.46330  0.35600  Biso   1.000  C
  H46      1.0000 0.62070  0.47820  0.38760  Biso   1.000  H
  C74      1.0000 0.21280  0.35950  0.29850  Biso   1.000  C
  H47      1.0000 0.26540  0.32190  0.32210  Biso   1.000  H
  C75      1.0000 0.09980  0.32510  0.39410  Biso   1.000  C
  C76      1.0000 0.45330  0.12620  0.55340  Biso   1.000  C
  H48      1.0000 0.47710  0.06880  0.56450  Biso   1.000  H
  C77      1.0000 0.36890  0.26100  0.59040  Biso   1.000  C
  H49      1.0000 0.33460  0.29400  0.62610  Biso   1.000  H
  O15      1.0000 0.55090  0.37280  0.11463  Biso   1.000  O
  O16      1.0000 0.52230  0.24140  0.16122  Biso   1.000  O
  N22      1.0000 0.16280  0.45650  0.19280  Biso   1.000  N
  N23      1.0000 0.88140  0.36880  0.17458  Biso   1.000  N
  N24      1.0000 0.33890  0.40880  0.20462  Biso   1.000  N
  C78      1.0000 0.54290  0.29170  0.10690  Biso   1.000  C
  C79      1.0000 0.56200  0.25020  0.03250  Biso   1.000  C
  C80      1.0000 0.52930  0.16370  0.01600  Biso   1.000  C
  H50      1.0000 0.49560  0.13050  0.05170  Biso   1.000  H
  C81      1.0000 0.61160  0.29860  0.97830  Biso   1.000  C
  H51      1.0000 0.63200  0.35710  0.98810  Biso   1.000  H
  C82      1.0000 0.23800  0.40680  0.23180  Biso   1.000  C
  C83      1.0000 0.21860  0.49250  0.13670  Biso   1.000  C
  H52      1.0000 0.18880  0.53070  0.09960  Biso   1.000  H
  C84      1.0000 0.32470  0.46330  0.14400  Biso   1.000  C
  H53      1.0000 0.37930  0.47820  0.11240  Biso   1.000  H
  C85      1.0000 0.78720  0.35950  0.20150  Biso   1.000  C
  H54      1.0000 0.73460  0.32190  0.17790  Biso   1.000  H
  C86      1.0000 0.90020  0.32510  0.10590  Biso   1.000  C
  C87      1.0000 0.54670  0.12620  0.94660  Biso   1.000  C
  H55      1.0000 0.52290  0.06880  0.93550  Biso   1.000  H
  C88      1.0000 0.63110  0.26100  0.90960  Biso   1.000  C
  H56      1.0000 0.66540  0.29400  0.87390  Biso   1.000  H
  Cd5      1.0000 0.00000  0.15004  0.75000  Biso   1.000  Cd
  Cd6      1.0000 0.50000  0.34996  0.25000  Biso   1.000  Cd
  Cd7      1.0000 0.50000  0.03313  0.75000  Biso   1.000  Cd
  Cd8      1.0000 0.00000  0.46687  0.25000  Biso   1.000  Cd
