data_image0
_cell_length_a       6.7408
_cell_length_b       16.0313
_cell_length_c       6.2426
_cell_angle_alpha    90
_cell_angle_beta     90
_cell_angle_gamma    90

_symmetry_space_group_name_H-M    "P 1"
_symmetry_int_tables_number       1

loop_
  _symmetry_equiv_pos_as_xyz
  'x, y, z'

loop_
  _atom_site_label
  _atom_site_occupancy
  _atom_site_fract_x
  _atom_site_fract_y
  _atom_site_fract_z
  _atom_site_thermal_displace_type
  _atom_site_B_iso_or_equiv
  _atom_site_type_symbol
  Cd1      1.0000 0.52130  0.42610  0.06570  Biso   1.000  Cd
  O1       1.0000 0.17690  0.42030  0.13500  Biso   1.000  O
  O2       1.0000 0.53430  0.44470  0.43780  Biso   1.000  O
  O3       1.0000 0.44210  0.37720  0.73460  Biso   1.000  O
  N1       1.0000 0.58190  0.29830  0.22570  Biso   1.000  N
  C1       1.0000 0.11600  0.35210  0.23260  Biso   1.000  C
  O4       1.0000 0.83060  0.44410  0.90880  Biso   1.000  O
  H1       1.0000 0.85240  0.40480  0.81780  Biso   1.000  H
  H2       1.0000 0.83480  0.49130  0.84340  Biso   1.000  H
  C2       1.0000 0.03600  0.35230  0.43990  Biso   1.000  C
  H3       1.0000 0.01270  0.40260  0.50960  Biso   1.000  H
  C3       1.0000 0.99180  0.27800  0.54070  Biso   1.000  C
  H4       1.0000 0.94240  0.27790  0.67980  Biso   1.000  H
  C4       1.0000 0.62680  0.22690  0.12920  Biso   1.000  C
  H5       1.0000 0.66730  0.22860  0.98680  Biso   1.000  H
  C5       1.0000 0.52210  0.29690  0.43160  Biso   1.000  C
  Cd2      1.0000 0.47870  0.57390  0.06570  Biso   1.000  Cd
  O5       1.0000 0.82310  0.57970  0.13500  Biso   1.000  O
  O6       1.0000 0.46570  0.55530  0.43780  Biso   1.000  O
  O7       1.0000 0.55790  0.62280  0.73460  Biso   1.000  O
  N2       1.0000 0.41810  0.70170  0.22570  Biso   1.000  N
  C6       1.0000 0.88400  0.64790  0.23260  Biso   1.000  C
  O8       1.0000 0.16940  0.55590  0.90880  Biso   1.000  O
  H6       1.0000 0.14760  0.59520  0.81780  Biso   1.000  H
  H7       1.0000 0.16520  0.50870  0.84340  Biso   1.000  H
  C7       1.0000 0.96400  0.64770  0.43990  Biso   1.000  C
  H8       1.0000 0.98730  0.59740  0.50960  Biso   1.000  H
  C8       1.0000 0.00820  0.72200  0.54070  Biso   1.000  C
  H9       1.0000 0.05760  0.72210  0.67980  Biso   1.000  H
  C9       1.0000 0.37320  0.77310  0.12920  Biso   1.000  C
  H10      1.0000 0.33270  0.77140  0.98680  Biso   1.000  H
  C10      1.0000 0.47790  0.70310  0.43160  Biso   1.000  C
  Cd3      1.0000 0.52130  0.57390  0.06570  Biso   1.000  Cd
  O9       1.0000 0.17690  0.57970  0.13500  Biso   1.000  O
  O10      1.0000 0.53430  0.55530  0.43780  Biso   1.000  O
  O11      1.0000 0.44210  0.62280  0.73460  Biso   1.000  O
  N3       1.0000 0.58190  0.70170  0.22570  Biso   1.000  N
  C11      1.0000 0.11600  0.64790  0.23260  Biso   1.000  C
  O12      1.0000 0.83060  0.55590  0.90880  Biso   1.000  O
  H11      1.0000 0.85240  0.59520  0.81780  Biso   1.000  H
  H12      1.0000 0.83480  0.50870  0.84340  Biso   1.000  H
  C12      1.0000 0.03600  0.64770  0.43990  Biso   1.000  C
  H13      1.0000 0.01270  0.59740  0.50960  Biso   1.000  H
  C13      1.0000 0.99180  0.72200  0.54070  Biso   1.000  C
  H14      1.0000 0.94240  0.72210  0.67980  Biso   1.000  H
  C14      1.0000 0.62680  0.77310  0.12920  Biso   1.000  C
  H15      1.0000 0.66730  0.77140  0.98680  Biso   1.000  H
  C15      1.0000 0.52210  0.70310  0.43160  Biso   1.000  C
  Cd4      1.0000 0.47870  0.42610  0.06570  Biso   1.000  Cd
  O13      1.0000 0.82310  0.42030  0.13500  Biso   1.000  O
  O14      1.0000 0.46570  0.44470  0.43780  Biso   1.000  O
  O15      1.0000 0.55790  0.37720  0.73460  Biso   1.000  O
  N4       1.0000 0.41810  0.29830  0.22570  Biso   1.000  N
  C16      1.0000 0.88400  0.35210  0.23260  Biso   1.000  C
  O16      1.0000 0.16940  0.44410  0.90880  Biso   1.000  O
  H16      1.0000 0.14760  0.40480  0.81780  Biso   1.000  H
  H17      1.0000 0.16520  0.49130  0.84340  Biso   1.000  H
  C17      1.0000 0.96400  0.35230  0.43990  Biso   1.000  C
  H18      1.0000 0.98730  0.40260  0.50960  Biso   1.000  H
  C18      1.0000 0.00820  0.27800  0.54070  Biso   1.000  C
  H19      1.0000 0.05760  0.27790  0.67980  Biso   1.000  H
  C19      1.0000 0.37320  0.22690  0.12920  Biso   1.000  C
  H20      1.0000 0.33270  0.22860  0.98680  Biso   1.000  H
  C20      1.0000 0.47790  0.29690  0.43160  Biso   1.000  C
  C21      1.0000 0.50000  0.37800  0.54530  Biso   1.000  C
  C22      1.0000 0.50000  0.62200  0.54530  Biso   1.000  C
