data_image0
_cell_length_a       11.94
_cell_length_b       13.228
_cell_length_c       13.859
_cell_angle_alpha    100.73
_cell_angle_beta     96.691
_cell_angle_gamma    115.292

_symmetry_space_group_name_H-M    "P 1"
_symmetry_int_tables_number       1

loop_
  _symmetry_equiv_pos_as_xyz
  'x, y, z'

loop_
  _atom_site_label
  _atom_site_occupancy
  _atom_site_fract_x
  _atom_site_fract_y
  _atom_site_fract_z
  _atom_site_thermal_displace_type
  _atom_site_B_iso_or_equiv
  _atom_site_type_symbol
  Ni1      1.0000 0.12852  0.41900  0.06278  Biso   1.000  Ni
  O1       1.0000 0.17150  0.24060  0.81380  Biso   1.000  O
  O2       1.0000 0.21010  0.34210  0.97100  Biso   1.000  O
  O3       1.0000 0.01960  0.40940  0.93350  Biso   1.000  O
  O4       1.0000 0.97560  0.52260  0.85130  Biso   1.000  O
  N1       1.0000 0.27930  0.58420  0.06910  Biso   1.000  N
  N2       1.0000 0.98680  0.24570  0.04930  Biso   1.000  N
  N3       1.0000 0.22780  0.42320  0.19940  Biso   1.000  N
  C1       1.0000 0.22960  0.44020  0.83860  Biso   1.000  C
  C2       1.0000 0.16200  0.50310  0.83550  Biso   1.000  C
  C3       1.0000 0.20950  0.60110  0.79920  Biso   1.000  C
  H1       1.0000 0.16160  0.64060  0.79400  Biso   1.000  H
  C4       1.0000 0.32350  0.64220  0.77060  Biso   1.000  C
  C5       1.0000 0.38890  0.57670  0.77180  Biso   1.000  C
  H2       1.0000 0.46540  0.60070  0.75120  Biso   1.000  H
  C6       1.0000 0.34100  0.47700  0.80320  Biso   1.000  C
  H3       1.0000 0.38420  0.43270  0.80080  Biso   1.000  H
  C7       1.0000 0.19840  0.33370  0.87660  Biso   1.000  C
  C8       1.0000 0.04260  0.47580  0.87540  Biso   1.000  C
  C9       1.0000 0.38040  0.75220  0.73890  Biso   1.000  C
  H4       1.0000 0.35700  0.73530  0.66700  Biso   1.000  H
  H5       1.0000 0.47120  0.78810  0.76020  Biso   1.000  H
  H6       1.0000 0.34960  0.80380  0.76930  Biso   1.000  H
  C10      1.0000 0.39390  0.59320  0.06530  Biso   1.000  C
  H7       1.0000 0.40820  0.53080  0.07200  Biso   1.000  H
  C11      1.0000 0.49270  0.68940  0.05200  Biso   1.000  C
  H8       1.0000 0.57040  0.69010  0.04870  Biso   1.000  H
  C12      1.0000 0.47610  0.78490  0.04350  Biso   1.000  C
  C13      1.0000 0.35920  0.77740  0.05110  Biso   1.000  C
  H9       1.0000 0.34460  0.84060  0.04850  Biso   1.000  H
  C14      1.0000 0.26300  0.67760  0.06230  Biso   1.000  C
  H10      1.0000 0.18430  0.67480  0.06540  Biso   1.000  H
  C15      1.0000 0.58040  0.89480  0.03130  Biso   1.000  C
  H11      1.0000 0.54850  0.91220  0.97220  Biso   1.000  H
  H12      1.0000 0.59740  0.95760  0.08900  Biso   1.000  H
  C16      1.0000 0.70490  0.89510  0.02090  Biso   1.000  C
  H13      1.0000 0.69430  0.84520  0.95600  Biso   1.000  H
  H14      1.0000 0.73200  0.86540  0.07300  Biso   1.000  H
  C17      1.0000 0.93920  0.16630  0.96100  Biso   1.000  C
  H15      1.0000 0.96810  0.18810  0.90500  Biso   1.000  H
  C18      1.0000 0.84870  0.05280  0.94840  Biso   1.000  C
  H16      1.0000 0.81760  0.00070  0.88500  Biso   1.000  H
  C19      1.0000 0.80500  0.01760  0.03000  Biso   1.000  C
  C20      1.0000 0.85510  0.10020  0.12090  Biso   1.000  C
  H17      1.0000 0.82920  0.08090  0.17850  Biso   1.000  H
  C21      1.0000 0.94350  0.21130  0.12660  Biso   1.000  C
  H18      1.0000 0.97460  0.26540  0.18900  Biso   1.000  H
  C22      1.0000 0.24150  0.33520  0.22130  Biso   1.000  C
  H19      1.0000 0.20880  0.26620  0.17110  Biso   1.000  H
  C23      1.0000 0.30260  0.34110  0.31600  Biso   1.000  C
  H20      1.0000 0.30740  0.27610  0.32820  Biso   1.000  H
  C24      1.0000 0.35580  0.44310  0.39160  Biso   1.000  C
  C25      1.0000 0.34030  0.53420  0.36790  Biso   1.000  C
  H21      1.0000 0.37380  0.60480  0.41620  Biso   1.000  H
  C26      1.0000 0.27540  0.52170  0.27300  Biso   1.000  C
  H22      1.0000 0.26450  0.58390  0.26010  Biso   1.000  H
  C27      1.0000 0.42970  0.45860  0.49290  Biso   1.000  C
  H23      1.0000 0.42030  0.38390  0.50000  Biso   1.000  H
  H24      1.0000 0.39580  0.48880  0.54490  Biso   1.000  H
  Ni2      1.0000 0.87148  0.58100  0.93722  Biso   1.000  Ni
  O5       1.0000 0.82850  0.75940  0.18620  Biso   1.000  O
  O6       1.0000 0.78990  0.65790  0.02900  Biso   1.000  O
  O7       1.0000 0.98040  0.59060  0.06650  Biso   1.000  O
  O8       1.0000 0.02440  0.47740  0.14870  Biso   1.000  O
  N4       1.0000 0.72070  0.41580  0.93090  Biso   1.000  N
  N5       1.0000 0.01320  0.75430  0.95070  Biso   1.000  N
  N6       1.0000 0.77220  0.57680  0.80060  Biso   1.000  N
  C28      1.0000 0.77040  0.55980  0.16140  Biso   1.000  C
  C29      1.0000 0.83800  0.49690  0.16450  Biso   1.000  C
  C30      1.0000 0.79050  0.39890  0.20080  Biso   1.000  C
  H25      1.0000 0.83840  0.35940  0.20600  Biso   1.000  H
  C31      1.0000 0.67650  0.35780  0.22940  Biso   1.000  C
  C32      1.0000 0.61110  0.42330  0.22820  Biso   1.000  C
  H26      1.0000 0.53460  0.39930  0.24880  Biso   1.000  H
  C33      1.0000 0.65900  0.52300  0.19680  Biso   1.000  C
  H27      1.0000 0.61580  0.56730  0.19920  Biso   1.000  H
  C34      1.0000 0.80160  0.66630  0.12340  Biso   1.000  C
  C35      1.0000 0.95740  0.52420  0.12460  Biso   1.000  C
  C36      1.0000 0.61960  0.24780  0.26110  Biso   1.000  C
  H28      1.0000 0.64300  0.26470  0.33300  Biso   1.000  H
  H29      1.0000 0.52880  0.21190  0.23980  Biso   1.000  H
  H30      1.0000 0.65040  0.19620  0.23070  Biso   1.000  H
  C37      1.0000 0.60610  0.40680  0.93470  Biso   1.000  C
  H31      1.0000 0.59180  0.46920  0.92800  Biso   1.000  H
  C38      1.0000 0.50730  0.31060  0.94800  Biso   1.000  C
  H32      1.0000 0.42960  0.30990  0.95130  Biso   1.000  H
  C39      1.0000 0.52390  0.21510  0.95650  Biso   1.000  C
  C40      1.0000 0.64080  0.22260  0.94890  Biso   1.000  C
  H33      1.0000 0.65540  0.15940  0.95150  Biso   1.000  H
  C41      1.0000 0.73700  0.32240  0.93770  Biso   1.000  C
  H34      1.0000 0.81570  0.32520  0.93460  Biso   1.000  H
  C42      1.0000 0.41960  0.10520  0.96870  Biso   1.000  C
  H35      1.0000 0.45150  0.08780  0.02780  Biso   1.000  H
  H36      1.0000 0.40260  0.04240  0.91100  Biso   1.000  H
  C43      1.0000 0.29510  0.10490  0.97910  Biso   1.000  C
  H37      1.0000 0.30570  0.15480  0.04400  Biso   1.000  H
  H38      1.0000 0.26800  0.13460  0.92700  Biso   1.000  H
  C44      1.0000 0.06080  0.83370  0.03900  Biso   1.000  C
  H39      1.0000 0.03190  0.81190  0.09500  Biso   1.000  H
  C45      1.0000 0.15130  0.94720  0.05160  Biso   1.000  C
  H40      1.0000 0.18240  0.99930  0.11500  Biso   1.000  H
  C46      1.0000 0.19500  0.98240  0.97000  Biso   1.000  C
  C47      1.0000 0.14490  0.89980  0.87910  Biso   1.000  C
  H41      1.0000 0.17080  0.91910  0.82150  Biso   1.000  H
  C48      1.0000 0.05650  0.78870  0.87340  Biso   1.000  C
  H42      1.0000 0.02540  0.73460  0.81100  Biso   1.000  H
  C49      1.0000 0.75850  0.66480  0.77870  Biso   1.000  C
  H43      1.0000 0.79120  0.73380  0.82890  Biso   1.000  H
  C50      1.0000 0.69740  0.65890  0.68400  Biso   1.000  C
  H44      1.0000 0.69260  0.72390  0.67180  Biso   1.000  H
  C51      1.0000 0.64420  0.55690  0.60840  Biso   1.000  C
  C52      1.0000 0.65970  0.46580  0.63210  Biso   1.000  C
  H45      1.0000 0.62620  0.39520  0.58380  Biso   1.000  H
  C53      1.0000 0.72460  0.47830  0.72700  Biso   1.000  C
  H46      1.0000 0.73550  0.41610  0.73990  Biso   1.000  H
  C54      1.0000 0.57030  0.54140  0.50710  Biso   1.000  C
  H47      1.0000 0.57970  0.61610  0.50000  Biso   1.000  H
  H48      1.0000 0.60420  0.51120  0.45510  Biso   1.000  H
