data_image0
_cell_length_a       8.6988
_cell_length_b       19.909
_cell_length_c       20.5713
_cell_angle_alpha    90
_cell_angle_beta     90
_cell_angle_gamma    90

_symmetry_space_group_name_H-M    "P 1"
_symmetry_int_tables_number       1

loop_
  _symmetry_equiv_pos_as_xyz
  'x, y, z'

loop_
  _atom_site_label
  _atom_site_occupancy
  _atom_site_fract_x
  _atom_site_fract_y
  _atom_site_fract_z
  _atom_site_thermal_displace_type
  _atom_site_B_iso_or_equiv
  _atom_site_type_symbol
  N1       1.0000 0.33770  0.37348  0.17993  Biso   1.000  N
  C1       1.0000 0.20220  0.39053  0.26513  Biso   1.000  C
  C2       1.0000 0.22920  0.32595  0.17812  Biso   1.000  C
  N2       1.0000 0.32275  0.41428  0.23259  Biso   1.000  N
  C3       1.0000 0.13910  0.33468  0.23208  Biso   1.000  C
  H1       1.0000 0.02620  0.26500  0.28640  Biso   1.000  H
  C4       1.0000 0.22020  0.27649  0.12368  Biso   1.000  C
  H2       1.0000 0.12660  0.28340  0.09990  Biso   1.000  H
  H3       1.0000 0.22170  0.23170  0.14100  Biso   1.000  H
  H4       1.0000 0.30650  0.28260  0.09520  Biso   1.000  H
  C5       1.0000 0.14960  0.42276  0.32663  Biso   1.000  C
  H5       1.0000 0.20960  0.46230  0.33470  Biso   1.000  H
  H6       1.0000 0.16200  0.39180  0.36200  Biso   1.000  H
  H7       1.0000 0.04310  0.43490  0.32270  Biso   1.000  H
  H8       1.0000 0.40100  0.38130  0.15170  Biso   1.000  H
  N3       1.0000 0.66230  0.62652  0.17993  Biso   1.000  N
  C6       1.0000 0.79780  0.60947  0.26513  Biso   1.000  C
  C7       1.0000 0.77080  0.67405  0.17812  Biso   1.000  C
  N4       1.0000 0.67725  0.58572  0.23259  Biso   1.000  N
  C8       1.0000 0.86090  0.66532  0.23208  Biso   1.000  C
  H9       1.0000 0.97380  0.73500  0.28640  Biso   1.000  H
  C9       1.0000 0.77980  0.72351  0.12368  Biso   1.000  C
  H10      1.0000 0.87340  0.71660  0.09990  Biso   1.000  H
  H11      1.0000 0.77830  0.76830  0.14100  Biso   1.000  H
  H12      1.0000 0.69350  0.71740  0.09520  Biso   1.000  H
  C10      1.0000 0.85040  0.57724  0.32663  Biso   1.000  C
  H13      1.0000 0.79040  0.53770  0.33470  Biso   1.000  H
  H14      1.0000 0.83800  0.60820  0.36200  Biso   1.000  H
  H15      1.0000 0.95690  0.56510  0.32270  Biso   1.000  H
  H16      1.0000 0.59900  0.61870  0.15170  Biso   1.000  H
  N5       1.0000 0.66230  0.37348  0.32007  Biso   1.000  N
  C11      1.0000 0.79780  0.39053  0.23487  Biso   1.000  C
  C12      1.0000 0.77080  0.32595  0.32188  Biso   1.000  C
  N6       1.0000 0.67725  0.41428  0.26741  Biso   1.000  N
  C13      1.0000 0.86090  0.33468  0.26792  Biso   1.000  C
  H17      1.0000 0.97380  0.26500  0.21360  Biso   1.000  H
  C14      1.0000 0.77980  0.27649  0.37632  Biso   1.000  C
  H18      1.0000 0.87340  0.28340  0.40010  Biso   1.000  H
  H19      1.0000 0.77830  0.23170  0.35900  Biso   1.000  H
  H20      1.0000 0.69350  0.28260  0.40480  Biso   1.000  H
  C15      1.0000 0.85040  0.42276  0.17337  Biso   1.000  C
  H21      1.0000 0.79040  0.46230  0.16530  Biso   1.000  H
  H22      1.0000 0.83800  0.39180  0.13800  Biso   1.000  H
  H23      1.0000 0.95690  0.43490  0.17730  Biso   1.000  H
  H24      1.0000 0.59900  0.38130  0.34830  Biso   1.000  H
  N7       1.0000 0.33770  0.62652  0.32007  Biso   1.000  N
  C16      1.0000 0.20220  0.60947  0.23487  Biso   1.000  C
  C17      1.0000 0.22920  0.67405  0.32188  Biso   1.000  C
  N8       1.0000 0.32275  0.58572  0.26741  Biso   1.000  N
  C18      1.0000 0.13910  0.66532  0.26792  Biso   1.000  C
  H25      1.0000 0.02620  0.73500  0.21360  Biso   1.000  H
  C19      1.0000 0.22020  0.72351  0.37632  Biso   1.000  C
  H26      1.0000 0.12660  0.71660  0.40010  Biso   1.000  H
  H27      1.0000 0.22170  0.76830  0.35900  Biso   1.000  H
  H28      1.0000 0.30650  0.71740  0.40480  Biso   1.000  H
  C20      1.0000 0.14960  0.57724  0.17337  Biso   1.000  C
  H29      1.0000 0.20960  0.53770  0.16530  Biso   1.000  H
  H30      1.0000 0.16200  0.60820  0.13800  Biso   1.000  H
  H31      1.0000 0.04310  0.56510  0.17730  Biso   1.000  H
  H32      1.0000 0.40100  0.61870  0.34830  Biso   1.000  H
  Cd1      1.0000 0.50000  0.50000  0.25000  Biso   1.000  Cd
  C21      1.0000 0.00000  0.29378  0.25000  Biso   1.000  C
  C22      1.0000 0.00000  0.70622  0.25000  Biso   1.000  C
  N9       1.0000 0.83770  0.87348  0.67993  Biso   1.000  N
  C23      1.0000 0.70220  0.89053  0.76513  Biso   1.000  C
  C24      1.0000 0.72920  0.82595  0.67812  Biso   1.000  C
  N10      1.0000 0.82275  0.91428  0.73259  Biso   1.000  N
  C25      1.0000 0.63910  0.83468  0.73208  Biso   1.000  C
  H33      1.0000 0.52620  0.76500  0.78640  Biso   1.000  H
  C26      1.0000 0.72020  0.77649  0.62368  Biso   1.000  C
  H34      1.0000 0.62660  0.78340  0.59990  Biso   1.000  H
  H35      1.0000 0.72170  0.73170  0.64100  Biso   1.000  H
  H36      1.0000 0.80650  0.78260  0.59520  Biso   1.000  H
  C27      1.0000 0.64960  0.92276  0.82663  Biso   1.000  C
  H37      1.0000 0.70960  0.96230  0.83470  Biso   1.000  H
  H38      1.0000 0.66200  0.89180  0.86200  Biso   1.000  H
  H39      1.0000 0.54310  0.93490  0.82270  Biso   1.000  H
  H40      1.0000 0.90100  0.88130  0.65170  Biso   1.000  H
  N11      1.0000 0.16230  0.12652  0.67993  Biso   1.000  N
  C28      1.0000 0.29780  0.10947  0.76513  Biso   1.000  C
  C29      1.0000 0.27080  0.17405  0.67812  Biso   1.000  C
  N12      1.0000 0.17725  0.08572  0.73259  Biso   1.000  N
  C30      1.0000 0.36090  0.16532  0.73208  Biso   1.000  C
  H41      1.0000 0.47380  0.23500  0.78640  Biso   1.000  H
  C31      1.0000 0.27980  0.22351  0.62368  Biso   1.000  C
  H42      1.0000 0.37340  0.21660  0.59990  Biso   1.000  H
  H43      1.0000 0.27830  0.26830  0.64100  Biso   1.000  H
  H44      1.0000 0.19350  0.21740  0.59520  Biso   1.000  H
  C32      1.0000 0.35040  0.07724  0.82663  Biso   1.000  C
  H45      1.0000 0.29040  0.03770  0.83470  Biso   1.000  H
  H46      1.0000 0.33800  0.10820  0.86200  Biso   1.000  H
  H47      1.0000 0.45690  0.06510  0.82270  Biso   1.000  H
  H48      1.0000 0.09900  0.11870  0.65170  Biso   1.000  H
  N13      1.0000 0.16230  0.87348  0.82007  Biso   1.000  N
  C33      1.0000 0.29780  0.89053  0.73487  Biso   1.000  C
  C34      1.0000 0.27080  0.82595  0.82188  Biso   1.000  C
  N14      1.0000 0.17725  0.91428  0.76741  Biso   1.000  N
  C35      1.0000 0.36090  0.83468  0.76792  Biso   1.000  C
  H49      1.0000 0.47380  0.76500  0.71360  Biso   1.000  H
  C36      1.0000 0.27980  0.77649  0.87632  Biso   1.000  C
  H50      1.0000 0.37340  0.78340  0.90010  Biso   1.000  H
  H51      1.0000 0.27830  0.73170  0.85900  Biso   1.000  H
  H52      1.0000 0.19350  0.78260  0.90480  Biso   1.000  H
  C37      1.0000 0.35040  0.92276  0.67337  Biso   1.000  C
  H53      1.0000 0.29040  0.96230  0.66530  Biso   1.000  H
  H54      1.0000 0.33800  0.89180  0.63800  Biso   1.000  H
  H55      1.0000 0.45690  0.93490  0.67730  Biso   1.000  H
  H56      1.0000 0.09900  0.88130  0.84830  Biso   1.000  H
  N15      1.0000 0.83770  0.12652  0.82007  Biso   1.000  N
  C38      1.0000 0.70220  0.10947  0.73487  Biso   1.000  C
  C39      1.0000 0.72920  0.17405  0.82188  Biso   1.000  C
  N16      1.0000 0.82275  0.08572  0.76741  Biso   1.000  N
  C40      1.0000 0.63910  0.16532  0.76792  Biso   1.000  C
  H57      1.0000 0.52620  0.23500  0.71360  Biso   1.000  H
  C41      1.0000 0.72020  0.22351  0.87632  Biso   1.000  C
  H58      1.0000 0.62660  0.21660  0.90010  Biso   1.000  H
  H59      1.0000 0.72170  0.26830  0.85900  Biso   1.000  H
  H60      1.0000 0.80650  0.21740  0.90480  Biso   1.000  H
  C42      1.0000 0.64960  0.07724  0.67337  Biso   1.000  C
  H61      1.0000 0.70960  0.03770  0.66530  Biso   1.000  H
  H62      1.0000 0.66200  0.10820  0.63800  Biso   1.000  H
  H63      1.0000 0.54310  0.06510  0.67730  Biso   1.000  H
  H64      1.0000 0.90100  0.11870  0.84830  Biso   1.000  H
  Cd2      1.0000 0.00000  0.00000  0.75000  Biso   1.000  Cd
  C43      1.0000 0.50000  0.79378  0.75000  Biso   1.000  C
  C44      1.0000 0.50000  0.20622  0.75000  Biso   1.000  C
  N17      1.0000 0.66230  0.62652  0.82007  Biso   1.000  N
  C45      1.0000 0.79780  0.60947  0.73487  Biso   1.000  C
  C46      1.0000 0.77080  0.67405  0.82188  Biso   1.000  C
  N18      1.0000 0.67725  0.58572  0.76741  Biso   1.000  N
  C47      1.0000 0.86090  0.66532  0.76792  Biso   1.000  C
  H65      1.0000 0.97380  0.73500  0.71360  Biso   1.000  H
  C48      1.0000 0.77980  0.72351  0.87632  Biso   1.000  C
  H66      1.0000 0.87340  0.71660  0.90010  Biso   1.000  H
  H67      1.0000 0.77830  0.76830  0.85900  Biso   1.000  H
  H68      1.0000 0.69350  0.71740  0.90480  Biso   1.000  H
  C49      1.0000 0.85040  0.57724  0.67337  Biso   1.000  C
  H69      1.0000 0.79040  0.53770  0.66530  Biso   1.000  H
  H70      1.0000 0.83800  0.60820  0.63800  Biso   1.000  H
  H71      1.0000 0.95690  0.56510  0.67730  Biso   1.000  H
  H72      1.0000 0.59900  0.61870  0.84830  Biso   1.000  H
  N19      1.0000 0.33770  0.37348  0.82007  Biso   1.000  N
  C50      1.0000 0.20220  0.39053  0.73487  Biso   1.000  C
  C51      1.0000 0.22920  0.32595  0.82188  Biso   1.000  C
  N20      1.0000 0.32275  0.41428  0.76741  Biso   1.000  N
  C52      1.0000 0.13910  0.33468  0.76792  Biso   1.000  C
  H73      1.0000 0.02620  0.26500  0.71360  Biso   1.000  H
  C53      1.0000 0.22020  0.27649  0.87632  Biso   1.000  C
  H74      1.0000 0.12660  0.28340  0.90010  Biso   1.000  H
  H75      1.0000 0.22170  0.23170  0.85900  Biso   1.000  H
  H76      1.0000 0.30650  0.28260  0.90480  Biso   1.000  H
  C54      1.0000 0.14960  0.42276  0.67337  Biso   1.000  C
  H77      1.0000 0.20960  0.46230  0.66530  Biso   1.000  H
  H78      1.0000 0.16200  0.39180  0.63800  Biso   1.000  H
  H79      1.0000 0.04310  0.43490  0.67730  Biso   1.000  H
  H80      1.0000 0.40100  0.38130  0.84830  Biso   1.000  H
  N21      1.0000 0.33770  0.62652  0.67993  Biso   1.000  N
  C55      1.0000 0.20220  0.60947  0.76513  Biso   1.000  C
  C56      1.0000 0.22920  0.67405  0.67812  Biso   1.000  C
  N22      1.0000 0.32275  0.58572  0.73259  Biso   1.000  N
  C57      1.0000 0.13910  0.66532  0.73208  Biso   1.000  C
  H81      1.0000 0.02620  0.73500  0.78640  Biso   1.000  H
  C58      1.0000 0.22020  0.72351  0.62368  Biso   1.000  C
  H82      1.0000 0.12660  0.71660  0.59990  Biso   1.000  H
  H83      1.0000 0.22170  0.76830  0.64100  Biso   1.000  H
  H84      1.0000 0.30650  0.71740  0.59520  Biso   1.000  H
  C59      1.0000 0.14960  0.57724  0.82663  Biso   1.000  C
  H85      1.0000 0.20960  0.53770  0.83470  Biso   1.000  H
  H86      1.0000 0.16200  0.60820  0.86200  Biso   1.000  H
  H87      1.0000 0.04310  0.56510  0.82270  Biso   1.000  H
  H88      1.0000 0.40100  0.61870  0.65170  Biso   1.000  H
  N23      1.0000 0.66230  0.37348  0.67993  Biso   1.000  N
  C60      1.0000 0.79780  0.39053  0.76513  Biso   1.000  C
  C61      1.0000 0.77080  0.32595  0.67812  Biso   1.000  C
  N24      1.0000 0.67725  0.41428  0.73259  Biso   1.000  N
  C62      1.0000 0.86090  0.33468  0.73208  Biso   1.000  C
  H89      1.0000 0.97380  0.26500  0.78640  Biso   1.000  H
  C63      1.0000 0.77980  0.27649  0.62368  Biso   1.000  C
  H90      1.0000 0.87340  0.28340  0.59990  Biso   1.000  H
  H91      1.0000 0.77830  0.23170  0.64100  Biso   1.000  H
  H92      1.0000 0.69350  0.28260  0.59520  Biso   1.000  H
  C64      1.0000 0.85040  0.42276  0.82663  Biso   1.000  C
  H93      1.0000 0.79040  0.46230  0.83470  Biso   1.000  H
  H94      1.0000 0.83800  0.39180  0.86200  Biso   1.000  H
  H95      1.0000 0.95690  0.43490  0.82270  Biso   1.000  H
  H96      1.0000 0.59900  0.38130  0.65170  Biso   1.000  H
  Cd3      1.0000 0.50000  0.50000  0.75000  Biso   1.000  Cd
  C65      1.0000 0.00000  0.70622  0.75000  Biso   1.000  C
  C66      1.0000 0.00000  0.29378  0.75000  Biso   1.000  C
  N25      1.0000 0.16230  0.12652  0.32007  Biso   1.000  N
  C67      1.0000 0.29780  0.10947  0.23487  Biso   1.000  C
  C68      1.0000 0.27080  0.17405  0.32188  Biso   1.000  C
  N26      1.0000 0.17725  0.08572  0.26741  Biso   1.000  N
  C69      1.0000 0.36090  0.16532  0.26792  Biso   1.000  C
  H97      1.0000 0.47380  0.23500  0.21360  Biso   1.000  H
  C70      1.0000 0.27980  0.22351  0.37632  Biso   1.000  C
  H98      1.0000 0.37340  0.21660  0.40010  Biso   1.000  H
  H99      1.0000 0.27830  0.26830  0.35900  Biso   1.000  H
  H100     1.0000 0.19350  0.21740  0.40480  Biso   1.000  H
  C71      1.0000 0.35040  0.07724  0.17337  Biso   1.000  C
  H101     1.0000 0.29040  0.03770  0.16530  Biso   1.000  H
  H102     1.0000 0.33800  0.10820  0.13800  Biso   1.000  H
  H103     1.0000 0.45690  0.06510  0.17730  Biso   1.000  H
  H104     1.0000 0.09900  0.11870  0.34830  Biso   1.000  H
  N27      1.0000 0.83770  0.87348  0.32007  Biso   1.000  N
  C72      1.0000 0.70220  0.89053  0.23487  Biso   1.000  C
  C73      1.0000 0.72920  0.82595  0.32188  Biso   1.000  C
  N28      1.0000 0.82275  0.91428  0.26741  Biso   1.000  N
  C74      1.0000 0.63910  0.83468  0.26792  Biso   1.000  C
  H105     1.0000 0.52620  0.76500  0.21360  Biso   1.000  H
  C75      1.0000 0.72020  0.77649  0.37632  Biso   1.000  C
  H106     1.0000 0.62660  0.78340  0.40010  Biso   1.000  H
  H107     1.0000 0.72170  0.73170  0.35900  Biso   1.000  H
  H108     1.0000 0.80650  0.78260  0.40480  Biso   1.000  H
  C76      1.0000 0.64960  0.92276  0.17337  Biso   1.000  C
  H109     1.0000 0.70960  0.96230  0.16530  Biso   1.000  H
  H110     1.0000 0.66200  0.89180  0.13800  Biso   1.000  H
  H111     1.0000 0.54310  0.93490  0.17730  Biso   1.000  H
  H112     1.0000 0.90100  0.88130  0.34830  Biso   1.000  H
  N29      1.0000 0.83770  0.12652  0.17993  Biso   1.000  N
  C77      1.0000 0.70220  0.10947  0.26513  Biso   1.000  C
  C78      1.0000 0.72920  0.17405  0.17812  Biso   1.000  C
  N30      1.0000 0.82275  0.08572  0.23259  Biso   1.000  N
  C79      1.0000 0.63910  0.16532  0.23208  Biso   1.000  C
  H113     1.0000 0.52620  0.23500  0.28640  Biso   1.000  H
  C80      1.0000 0.72020  0.22351  0.12368  Biso   1.000  C
  H114     1.0000 0.62660  0.21660  0.09990  Biso   1.000  H
  H115     1.0000 0.72170  0.26830  0.14100  Biso   1.000  H
  H116     1.0000 0.80650  0.21740  0.09520  Biso   1.000  H
  C81      1.0000 0.64960  0.07724  0.32663  Biso   1.000  C
  H117     1.0000 0.70960  0.03770  0.33470  Biso   1.000  H
  H118     1.0000 0.66200  0.10820  0.36200  Biso   1.000  H
  H119     1.0000 0.54310  0.06510  0.32270  Biso   1.000  H
  H120     1.0000 0.90100  0.11870  0.15170  Biso   1.000  H
  N31      1.0000 0.16230  0.87348  0.17993  Biso   1.000  N
  C82      1.0000 0.29780  0.89053  0.26513  Biso   1.000  C
  C83      1.0000 0.27080  0.82595  0.17812  Biso   1.000  C
  N32      1.0000 0.17725  0.91428  0.23259  Biso   1.000  N
  C84      1.0000 0.36090  0.83468  0.23208  Biso   1.000  C
  H121     1.0000 0.47380  0.76500  0.28640  Biso   1.000  H
  C85      1.0000 0.27980  0.77649  0.12368  Biso   1.000  C
  H122     1.0000 0.37340  0.78340  0.09990  Biso   1.000  H
  H123     1.0000 0.27830  0.73170  0.14100  Biso   1.000  H
  H124     1.0000 0.19350  0.78260  0.09520  Biso   1.000  H
  C86      1.0000 0.35040  0.92276  0.32663  Biso   1.000  C
  H125     1.0000 0.29040  0.96230  0.33470  Biso   1.000  H
  H126     1.0000 0.33800  0.89180  0.36200  Biso   1.000  H
  H127     1.0000 0.45690  0.93490  0.32270  Biso   1.000  H
  H128     1.0000 0.09900  0.88130  0.15170  Biso   1.000  H
  Cd4      1.0000 0.00000  0.00000  0.25000  Biso   1.000  Cd
  C87      1.0000 0.50000  0.20622  0.25000  Biso   1.000  C
  C88      1.0000 0.50000  0.79378  0.25000  Biso   1.000  C
