data_image0
_cell_length_a       16.483
_cell_length_b       16.483
_cell_length_c       14.203
_cell_angle_alpha    90
_cell_angle_beta     90
_cell_angle_gamma    120

_symmetry_space_group_name_H-M    "P 1"
_symmetry_int_tables_number       1

loop_
  _symmetry_equiv_pos_as_xyz
  'x, y, z'

loop_
  _atom_site_label
  _atom_site_occupancy
  _atom_site_fract_x
  _atom_site_fract_y
  _atom_site_fract_z
  _atom_site_thermal_displace_type
  _atom_site_B_iso_or_equiv
  _atom_site_type_symbol
  O1       1.0000 0.55920  0.22660  0.32420  Biso   1.000  O
  O2       1.0000 0.53950  0.23850  0.47960  Biso   1.000  O
  C1       1.0000 0.22070  0.01180  0.37240  Biso   1.000  C
  C2       1.0000 0.36940  0.09530  0.30230  Biso   1.000  C
  H1       1.0000 0.40810  0.11000  0.24990  Biso   1.000  H
  C3       1.0000 0.25560  0.04710  0.45940  Biso   1.000  C
  H2       1.0000 0.21680  0.02960  0.51190  Biso   1.000  H
  C4       1.0000 0.27500  0.03470  0.29320  Biso   1.000  C
  H3       1.0000 0.24860  0.00990  0.23490  Biso   1.000  H
  C5       1.0000 0.35080  0.10990  0.46710  Biso   1.000  C
  H4       1.0000 0.37640  0.13540  0.52550  Biso   1.000  H
  C6       1.0000 0.40770  0.13470  0.38900  Biso   1.000  C
  O3       1.0000 0.12430  0.94630  0.36460  Biso   1.000  O
  C7       1.0000 0.06380  0.97610  0.36760  Biso   1.000  C
  N1       1.0000 0.97340  0.90530  0.36760  Biso   1.000  N
  C8       1.0000 0.51000  0.20480  0.39840  Biso   1.000  C
  O4       1.0000 0.77340  0.33260  0.32420  Biso   1.000  O
  O5       1.0000 0.76150  0.30100  0.47960  Biso   1.000  O
  C9       1.0000 0.98820  0.20890  0.37240  Biso   1.000  C
  C10      1.0000 0.90470  0.27410  0.30230  Biso   1.000  C
  H5       1.0000 0.89000  0.29810  0.24990  Biso   1.000  H
  C11      1.0000 0.95290  0.20850  0.45940  Biso   1.000  C
  H6       1.0000 0.97040  0.18720  0.51190  Biso   1.000  H
  C12      1.0000 0.96530  0.24030  0.29320  Biso   1.000  C
  H7       1.0000 0.99010  0.23870  0.23490  Biso   1.000  H
  C13      1.0000 0.89010  0.24090  0.46710  Biso   1.000  C
  H8       1.0000 0.86460  0.24100  0.52550  Biso   1.000  H
  C14      1.0000 0.86530  0.27300  0.38900  Biso   1.000  C
  O6       1.0000 0.05370  0.17800  0.36460  Biso   1.000  O
  C15      1.0000 0.02390  0.08770  0.36760  Biso   1.000  C
  N2       1.0000 0.09470  0.06810  0.36760  Biso   1.000  N
  C16      1.0000 0.79520  0.30520  0.39840  Biso   1.000  C
  O7       1.0000 0.66740  0.44080  0.32420  Biso   1.000  O
  O8       1.0000 0.69900  0.46050  0.47960  Biso   1.000  O
  C17      1.0000 0.79110  0.77930  0.37240  Biso   1.000  C
  C18      1.0000 0.72590  0.63060  0.30230  Biso   1.000  C
  H9       1.0000 0.70190  0.59190  0.24990  Biso   1.000  H
  C19      1.0000 0.79150  0.74440  0.45940  Biso   1.000  C
  H10      1.0000 0.81280  0.78320  0.51190  Biso   1.000  H
  C20      1.0000 0.75970  0.72500  0.29320  Biso   1.000  C
  H11      1.0000 0.76130  0.75140  0.23490  Biso   1.000  H
  C21      1.0000 0.75910  0.64920  0.46710  Biso   1.000  C
  H12      1.0000 0.75900  0.62360  0.52550  Biso   1.000  H
  C22      1.0000 0.72700  0.59230  0.38900  Biso   1.000  C
  O9       1.0000 0.82200  0.87570  0.36460  Biso   1.000  O
  C23      1.0000 0.91230  0.93620  0.36760  Biso   1.000  C
  N3       1.0000 0.93190  0.02660  0.36760  Biso   1.000  N
  C24      1.0000 0.69480  0.49000  0.39840  Biso   1.000  C
  O10      1.0000 0.77340  0.44080  0.17580  Biso   1.000  O
  O11      1.0000 0.76150  0.46050  0.02040  Biso   1.000  O
  C25      1.0000 0.98820  0.77930  0.12760  Biso   1.000  C
  C26      1.0000 0.90470  0.63060  0.19770  Biso   1.000  C
  H13      1.0000 0.89000  0.59190  0.25010  Biso   1.000  H
  C27      1.0000 0.95290  0.74440  0.04060  Biso   1.000  C
  H14      1.0000 0.97040  0.78320  0.98810  Biso   1.000  H
  C28      1.0000 0.96530  0.72500  0.20680  Biso   1.000  C
  H15      1.0000 0.99010  0.75140  0.26510  Biso   1.000  H
  C29      1.0000 0.89010  0.64920  0.03290  Biso   1.000  C
  H16      1.0000 0.86460  0.62360  0.97450  Biso   1.000  H
  C30      1.0000 0.86530  0.59230  0.11100  Biso   1.000  C
  O12      1.0000 0.05370  0.87570  0.13540  Biso   1.000  O
  C31      1.0000 0.02390  0.93620  0.13240  Biso   1.000  C
  N4       1.0000 0.09470  0.02660  0.13240  Biso   1.000  N
  C32      1.0000 0.79520  0.49000  0.10160  Biso   1.000  C
  O13      1.0000 0.66740  0.22660  0.17580  Biso   1.000  O
  O14      1.0000 0.69900  0.23850  0.02040  Biso   1.000  O
  C33      1.0000 0.79110  0.01180  0.12760  Biso   1.000  C
  C34      1.0000 0.72590  0.09530  0.19770  Biso   1.000  C
  H17      1.0000 0.70190  0.11000  0.25010  Biso   1.000  H
  C35      1.0000 0.79150  0.04710  0.04060  Biso   1.000  C
  H18      1.0000 0.81280  0.02960  0.98810  Biso   1.000  H
  C36      1.0000 0.75970  0.03470  0.20680  Biso   1.000  C
  H19      1.0000 0.76130  0.00990  0.26510  Biso   1.000  H
  C37      1.0000 0.75910  0.10990  0.03290  Biso   1.000  C
  H20      1.0000 0.75900  0.13540  0.97450  Biso   1.000  H
  C38      1.0000 0.72700  0.13470  0.11100  Biso   1.000  C
  O15      1.0000 0.82200  0.94630  0.13540  Biso   1.000  O
  C39      1.0000 0.91230  0.97610  0.13240  Biso   1.000  C
  N5       1.0000 0.93190  0.90530  0.13240  Biso   1.000  N
  C40      1.0000 0.69480  0.20480  0.10160  Biso   1.000  C
  O16      1.0000 0.55920  0.33260  0.17580  Biso   1.000  O
  O17      1.0000 0.53950  0.30100  0.02040  Biso   1.000  O
  C41      1.0000 0.22070  0.20890  0.12760  Biso   1.000  C
  C42      1.0000 0.36940  0.27410  0.19770  Biso   1.000  C
  H21      1.0000 0.40810  0.29810  0.25010  Biso   1.000  H
  C43      1.0000 0.25560  0.20850  0.04060  Biso   1.000  C
  H22      1.0000 0.21680  0.18720  0.98810  Biso   1.000  H
  C44      1.0000 0.27500  0.24030  0.20680  Biso   1.000  C
  H23      1.0000 0.24860  0.23870  0.26510  Biso   1.000  H
  C45      1.0000 0.35080  0.24090  0.03290  Biso   1.000  C
  H24      1.0000 0.37640  0.24100  0.97450  Biso   1.000  H
  C46      1.0000 0.40770  0.27300  0.11100  Biso   1.000  C
  O18      1.0000 0.12430  0.17800  0.13540  Biso   1.000  O
  C47      1.0000 0.06380  0.08770  0.13240  Biso   1.000  C
  N6       1.0000 0.97340  0.06810  0.13240  Biso   1.000  N
  C48      1.0000 0.51000  0.30520  0.10160  Biso   1.000  C
  Co1      1.0000 0.66667  0.33333  0.25000  Biso   1.000  Co
  Co2      1.0000 0.66667  0.33333  0.50303  Biso   1.000  Co
  Co3      1.0000 0.66667  0.33333  0.99697  Biso   1.000  Co
  O19      1.0000 0.44080  0.77340  0.67580  Biso   1.000  O
  O20      1.0000 0.46050  0.76150  0.52040  Biso   1.000  O
  C49      1.0000 0.77930  0.98820  0.62760  Biso   1.000  C
  C50      1.0000 0.63060  0.90470  0.69770  Biso   1.000  C
  H25      1.0000 0.59190  0.89000  0.75010  Biso   1.000  H
  C51      1.0000 0.74440  0.95290  0.54060  Biso   1.000  C
  H26      1.0000 0.78320  0.97040  0.48810  Biso   1.000  H
  C52      1.0000 0.72500  0.96530  0.70680  Biso   1.000  C
  H27      1.0000 0.75140  0.99010  0.76510  Biso   1.000  H
  C53      1.0000 0.64920  0.89010  0.53290  Biso   1.000  C
  H28      1.0000 0.62360  0.86460  0.47450  Biso   1.000  H
  C54      1.0000 0.59230  0.86530  0.61100  Biso   1.000  C
  O21      1.0000 0.87570  0.05370  0.63540  Biso   1.000  O
  C55      1.0000 0.93620  0.02390  0.63240  Biso   1.000  C
  N7       1.0000 0.02660  0.09470  0.63240  Biso   1.000  N
  C56      1.0000 0.49000  0.79520  0.60160  Biso   1.000  C
  O22      1.0000 0.22660  0.66740  0.67580  Biso   1.000  O
  O23      1.0000 0.23850  0.69900  0.52040  Biso   1.000  O
  C57      1.0000 0.01180  0.79110  0.62760  Biso   1.000  C
  C58      1.0000 0.09530  0.72590  0.69770  Biso   1.000  C
  H29      1.0000 0.11000  0.70190  0.75010  Biso   1.000  H
  C59      1.0000 0.04710  0.79150  0.54060  Biso   1.000  C
  H30      1.0000 0.02960  0.81280  0.48810  Biso   1.000  H
  C60      1.0000 0.03470  0.75970  0.70680  Biso   1.000  C
  H31      1.0000 0.00990  0.76130  0.76510  Biso   1.000  H
  C61      1.0000 0.10990  0.75910  0.53290  Biso   1.000  C
  H32      1.0000 0.13540  0.75900  0.47450  Biso   1.000  H
  C62      1.0000 0.13470  0.72700  0.61100  Biso   1.000  C
  O24      1.0000 0.94630  0.82200  0.63540  Biso   1.000  O
  C63      1.0000 0.97610  0.91230  0.63240  Biso   1.000  C
  N8       1.0000 0.90530  0.93190  0.63240  Biso   1.000  N
  C64      1.0000 0.20480  0.69480  0.60160  Biso   1.000  C
  O25      1.0000 0.33260  0.55920  0.67580  Biso   1.000  O
  O26      1.0000 0.30100  0.53950  0.52040  Biso   1.000  O
  C65      1.0000 0.20890  0.22070  0.62760  Biso   1.000  C
  C66      1.0000 0.27410  0.36940  0.69770  Biso   1.000  C
  H33      1.0000 0.29810  0.40810  0.75010  Biso   1.000  H
  C67      1.0000 0.20850  0.25560  0.54060  Biso   1.000  C
  H34      1.0000 0.18720  0.21680  0.48810  Biso   1.000  H
  C68      1.0000 0.24030  0.27500  0.70680  Biso   1.000  C
  H35      1.0000 0.23870  0.24860  0.76510  Biso   1.000  H
  C69      1.0000 0.24090  0.35080  0.53290  Biso   1.000  C
  H36      1.0000 0.24100  0.37640  0.47450  Biso   1.000  H
  C70      1.0000 0.27300  0.40770  0.61100  Biso   1.000  C
  O27      1.0000 0.17800  0.12430  0.63540  Biso   1.000  O
  C71      1.0000 0.08770  0.06380  0.63240  Biso   1.000  C
  N9       1.0000 0.06810  0.97340  0.63240  Biso   1.000  N
  C72      1.0000 0.30520  0.51000  0.60160  Biso   1.000  C
  O28      1.0000 0.22660  0.55920  0.82420  Biso   1.000  O
  O29      1.0000 0.23850  0.53950  0.97960  Biso   1.000  O
  C73      1.0000 0.01180  0.22070  0.87240  Biso   1.000  C
  C74      1.0000 0.09530  0.36940  0.80230  Biso   1.000  C
  H37      1.0000 0.11000  0.40810  0.74990  Biso   1.000  H
  C75      1.0000 0.04710  0.25560  0.95940  Biso   1.000  C
  H38      1.0000 0.02960  0.21680  0.01190  Biso   1.000  H
  C76      1.0000 0.03470  0.27500  0.79320  Biso   1.000  C
  H39      1.0000 0.00990  0.24860  0.73490  Biso   1.000  H
  C77      1.0000 0.10990  0.35080  0.96710  Biso   1.000  C
  H40      1.0000 0.13540  0.37640  0.02550  Biso   1.000  H
  C78      1.0000 0.13470  0.40770  0.88900  Biso   1.000  C
  O30      1.0000 0.94630  0.12430  0.86460  Biso   1.000  O
  C79      1.0000 0.97610  0.06380  0.86760  Biso   1.000  C
  N10      1.0000 0.90530  0.97340  0.86760  Biso   1.000  N
  C80      1.0000 0.20480  0.51000  0.89840  Biso   1.000  C
  O31      1.0000 0.33260  0.77340  0.82420  Biso   1.000  O
  O32      1.0000 0.30100  0.76150  0.97960  Biso   1.000  O
  C81      1.0000 0.20890  0.98820  0.87240  Biso   1.000  C
  C82      1.0000 0.27410  0.90470  0.80230  Biso   1.000  C
  H41      1.0000 0.29810  0.89000  0.74990  Biso   1.000  H
  C83      1.0000 0.20850  0.95290  0.95940  Biso   1.000  C
  H42      1.0000 0.18720  0.97040  0.01190  Biso   1.000  H
  C84      1.0000 0.24030  0.96530  0.79320  Biso   1.000  C
  H43      1.0000 0.23870  0.99010  0.73490  Biso   1.000  H
  C85      1.0000 0.24090  0.89010  0.96710  Biso   1.000  C
  H44      1.0000 0.24100  0.86460  0.02550  Biso   1.000  H
  C86      1.0000 0.27300  0.86530  0.88900  Biso   1.000  C
  O33      1.0000 0.17800  0.05370  0.86460  Biso   1.000  O
  C87      1.0000 0.08770  0.02390  0.86760  Biso   1.000  C
  N11      1.0000 0.06810  0.09470  0.86760  Biso   1.000  N
  C88      1.0000 0.30520  0.79520  0.89840  Biso   1.000  C
  O34      1.0000 0.44080  0.66740  0.82420  Biso   1.000  O
  O35      1.0000 0.46050  0.69900  0.97960  Biso   1.000  O
  C89      1.0000 0.77930  0.79110  0.87240  Biso   1.000  C
  C90      1.0000 0.63060  0.72590  0.80230  Biso   1.000  C
  H45      1.0000 0.59190  0.70190  0.74990  Biso   1.000  H
  C91      1.0000 0.74440  0.79150  0.95940  Biso   1.000  C
  H46      1.0000 0.78320  0.81280  0.01190  Biso   1.000  H
  C92      1.0000 0.72500  0.75970  0.79320  Biso   1.000  C
  H47      1.0000 0.75140  0.76130  0.73490  Biso   1.000  H
  C93      1.0000 0.64920  0.75910  0.96710  Biso   1.000  C
  H48      1.0000 0.62360  0.75900  0.02550  Biso   1.000  H
  C94      1.0000 0.59230  0.72700  0.88900  Biso   1.000  C
  O36      1.0000 0.87570  0.82200  0.86460  Biso   1.000  O
  C95      1.0000 0.93620  0.91230  0.86760  Biso   1.000  C
  N12      1.0000 0.02660  0.93190  0.86760  Biso   1.000  N
  C96      1.0000 0.49000  0.69480  0.89840  Biso   1.000  C
  Co4      1.0000 0.33333  0.66667  0.75000  Biso   1.000  Co
  Co5      1.0000 0.33333  0.66667  0.49697  Biso   1.000  Co
  Co6      1.0000 0.33333  0.66667  0.00303  Biso   1.000  Co
