data_image0
_cell_length_a       17.3867
_cell_length_b       17.3867
_cell_length_c       16.4662
_cell_angle_alpha    90
_cell_angle_beta     90
_cell_angle_gamma    90

_symmetry_space_group_name_H-M    "P 1"
_symmetry_int_tables_number       1

loop_
  _symmetry_equiv_pos_as_xyz
  'x, y, z'

loop_
  _atom_site_label
  _atom_site_occupancy
  _atom_site_fract_x
  _atom_site_fract_y
  _atom_site_fract_z
  _atom_site_thermal_displace_type
  _atom_site_B_iso_or_equiv
  _atom_site_type_symbol
  Zn1      1.0000 0.98223  0.21734  0.12820  Biso   1.000  Zn
  C1       1.0000 0.86951  0.30642  0.47913  Biso   1.000  C
  H1       1.0000 0.91300  0.28290  0.50770  Biso   1.000  H
  C2       1.0000 0.90144  0.36084  0.41471  Biso   1.000  C
  H2       1.0000 0.85790  0.38490  0.38680  Biso   1.000  H
  C3       1.0000 0.94920  0.42495  0.45490  Biso   1.000  C
  H3       1.0000 0.99310  0.40270  0.48260  Biso   1.000  H
  H4       1.0000 0.96820  0.46000  0.41370  Biso   1.000  H
  C4       1.0000 0.89910  0.46860  0.51560  Biso   1.000  C
  H5       1.0000 0.92930  0.50850  0.54150  Biso   1.000  H
  H6       1.0000 0.85680  0.49310  0.48710  Biso   1.000  H
  C5       1.0000 0.86740  0.41430  0.57980  Biso   1.000  C
  H7       1.0000 0.83500  0.44290  0.61700  Biso   1.000  H
  H8       1.0000 0.90960  0.39250  0.61060  Biso   1.000  H
  C6       1.0000 0.82090  0.34973  0.54120  Biso   1.000  C
  H9       1.0000 0.77580  0.37100  0.51480  Biso   1.000  H
  H10      1.0000 0.80360  0.31440  0.58310  Biso   1.000  H
  C7       1.0000 0.75640  0.25078  0.39862  Biso   1.000  C
  H11      1.0000 0.73020  0.29670  0.39030  Biso   1.000  H
  C8       1.0000 0.84180  0.16889  0.43795  Biso   1.000  C
  H12      1.0000 0.88530  0.14670  0.46100  Biso   1.000  H
  C9       1.0000 0.92839  0.30977  0.27483  Biso   1.000  C
  H13      1.0000 0.88560  0.33120  0.24960  Biso   1.000  H
  C10      1.0000 0.01302  0.27752  0.36423  Biso   1.000  C
  H14      1.0000 0.03940  0.27320  0.41310  Biso   1.000  H
  C11      1.0000 0.11254  0.94317  0.22936  Biso   1.000  C
  H15      1.0000 0.14140  0.97050  0.27160  Biso   1.000  H
  C12      1.0000 0.17000  0.89850  0.17620  Biso   1.000  C
  H16      1.0000 0.14270  0.87180  0.13330  Biso   1.000  H
  H17      1.0000 0.20600  0.93400  0.15130  Biso   1.000  H
  C13      1.0000 0.21360  0.84060  0.22840  Biso   1.000  C
  H18      1.0000 0.24820  0.81120  0.19430  Biso   1.000  H
  H19      1.0000 0.24430  0.86800  0.26820  Biso   1.000  H
  C14      1.0000 0.06167  0.07523  0.19957  Biso   1.000  C
  H20      1.0000 0.08710  0.10050  0.24140  Biso   1.000  H
  C15      1.0000 0.02158  0.98800  0.11714  Biso   1.000  C
  H21      1.0000 0.01500  0.94070  0.09170  Biso   1.000  H
  N1       1.0000 0.82422  0.24437  0.44065  Biso   1.000  N
  N2       1.0000 0.73339  0.18358  0.37169  Biso   1.000  N
  N3       1.0000 0.78842  0.13166  0.39804  Biso   1.000  N
  N4       1.0000 0.94657  0.31845  0.35402  Biso   1.000  N
  N5       1.0000 0.97999  0.26672  0.23894  Biso   1.000  N
  N6       1.0000 0.03461  0.24529  0.29642  Biso   1.000  N
  N7       1.0000 0.06874  0.00027  0.18155  Biso   1.000  N
  N8       1.0000 0.01293  0.10718  0.14853  Biso   1.000  N
  N9       1.0000 0.98646  0.05158  0.09554  Biso   1.000  N
  Zn2      1.0000 0.78266  0.01777  0.37180  Biso   1.000  Zn
  C16      1.0000 0.69358  0.13049  0.02087  Biso   1.000  C
  H22      1.0000 0.71710  0.08700  0.99230  Biso   1.000  H
  C17      1.0000 0.63916  0.09856  0.08529  Biso   1.000  C
  H23      1.0000 0.61510  0.14210  0.11320  Biso   1.000  H
  C18      1.0000 0.57505  0.05080  0.04510  Biso   1.000  C
  H24      1.0000 0.59730  0.00690  0.01740  Biso   1.000  H
  H25      1.0000 0.54000  0.03180  0.08630  Biso   1.000  H
  C19      1.0000 0.53140  0.10090  0.98440  Biso   1.000  C
  H26      1.0000 0.49150  0.07070  0.95850  Biso   1.000  H
  H27      1.0000 0.50690  0.14320  0.01290  Biso   1.000  H
  C20      1.0000 0.58570  0.13260  0.92020  Biso   1.000  C
  H28      1.0000 0.55710  0.16500  0.88300  Biso   1.000  H
  H29      1.0000 0.60750  0.09040  0.88940  Biso   1.000  H
  C21      1.0000 0.65027  0.17910  0.95880  Biso   1.000  C
  H30      1.0000 0.62900  0.22420  0.98520  Biso   1.000  H
  H31      1.0000 0.68560  0.19640  0.91690  Biso   1.000  H
  C22      1.0000 0.74922  0.24360  0.10138  Biso   1.000  C
  H32      1.0000 0.70330  0.26980  0.10970  Biso   1.000  H
  C23      1.0000 0.83111  0.15820  0.06205  Biso   1.000  C
  H33      1.0000 0.85330  0.11470  0.03900  Biso   1.000  H
  C24      1.0000 0.69023  0.07161  0.22517  Biso   1.000  C
  H34      1.0000 0.66880  0.11440  0.25040  Biso   1.000  H
  C25      1.0000 0.72248  0.98698  0.13577  Biso   1.000  C
  H35      1.0000 0.72680  0.96060  0.08690  Biso   1.000  H
  C26      1.0000 0.05683  0.88746  0.27064  Biso   1.000  C
  H36      1.0000 0.02950  0.85860  0.22840  Biso   1.000  H
  C27      1.0000 0.10150  0.83000  0.32380  Biso   1.000  C
  H37      1.0000 0.12820  0.85730  0.36670  Biso   1.000  H
  H38      1.0000 0.06600  0.79400  0.34870  Biso   1.000  H
  C28      1.0000 0.15940  0.78640  0.27160  Biso   1.000  C
  H39      1.0000 0.18880  0.75180  0.30570  Biso   1.000  H
  H40      1.0000 0.13200  0.75570  0.23180  Biso   1.000  H
  C29      1.0000 0.92477  0.93833  0.30043  Biso   1.000  C
  H41      1.0000 0.89950  0.91290  0.25860  Biso   1.000  H
  C30      1.0000 0.01200  0.97842  0.38286  Biso   1.000  C
  H42      1.0000 0.05930  0.98500  0.40830  Biso   1.000  H
  N10      1.0000 0.75563  0.17578  0.05935  Biso   1.000  N
  N11      1.0000 0.81642  0.26661  0.12831  Biso   1.000  N
  N12      1.0000 0.86834  0.21158  0.10196  Biso   1.000  N
  N13      1.0000 0.68155  0.05343  0.14598  Biso   1.000  N
  N14      1.0000 0.73328  0.02001  0.26106  Biso   1.000  N
  N15      1.0000 0.75471  0.96539  0.20358  Biso   1.000  N
  N16      1.0000 0.99973  0.93126  0.31845  Biso   1.000  N
  N17      1.0000 0.89282  0.98707  0.35147  Biso   1.000  N
  N18      1.0000 0.94842  0.01354  0.40446  Biso   1.000  N
  Zn3      1.0000 0.01777  0.78266  0.62820  Biso   1.000  Zn
  C31      1.0000 0.13049  0.69358  0.97913  Biso   1.000  C
  H43      1.0000 0.08700  0.71710  0.00770  Biso   1.000  H
  C32      1.0000 0.09856  0.63916  0.91471  Biso   1.000  C
  H44      1.0000 0.14210  0.61510  0.88680  Biso   1.000  H
  C33      1.0000 0.05080  0.57505  0.95490  Biso   1.000  C
  H45      1.0000 0.00690  0.59730  0.98260  Biso   1.000  H
  H46      1.0000 0.03180  0.54000  0.91370  Biso   1.000  H
  C34      1.0000 0.10090  0.53140  0.01560  Biso   1.000  C
  H47      1.0000 0.07070  0.49150  0.04150  Biso   1.000  H
  H48      1.0000 0.14320  0.50690  0.98710  Biso   1.000  H
  C35      1.0000 0.13260  0.58570  0.07980  Biso   1.000  C
  H49      1.0000 0.16500  0.55710  0.11700  Biso   1.000  H
  H50      1.0000 0.09040  0.60750  0.11060  Biso   1.000  H
  C36      1.0000 0.17910  0.65027  0.04120  Biso   1.000  C
  H51      1.0000 0.22420  0.62900  0.01480  Biso   1.000  H
  H52      1.0000 0.19640  0.68560  0.08310  Biso   1.000  H
  C37      1.0000 0.24360  0.74922  0.89862  Biso   1.000  C
  H53      1.0000 0.26980  0.70330  0.89030  Biso   1.000  H
  C38      1.0000 0.15820  0.83111  0.93795  Biso   1.000  C
  H54      1.0000 0.11470  0.85330  0.96100  Biso   1.000  H
  C39      1.0000 0.07161  0.69023  0.77483  Biso   1.000  C
  H55      1.0000 0.11440  0.66880  0.74960  Biso   1.000  H
  C40      1.0000 0.98698  0.72248  0.86423  Biso   1.000  C
  H56      1.0000 0.96060  0.72680  0.91310  Biso   1.000  H
  C41      1.0000 0.88746  0.05683  0.72936  Biso   1.000  C
  H57      1.0000 0.85860  0.02950  0.77160  Biso   1.000  H
  C42      1.0000 0.83000  0.10150  0.67620  Biso   1.000  C
  H58      1.0000 0.85730  0.12820  0.63330  Biso   1.000  H
  H59      1.0000 0.79400  0.06600  0.65130  Biso   1.000  H
  C43      1.0000 0.78640  0.15940  0.72840  Biso   1.000  C
  H60      1.0000 0.75180  0.18880  0.69430  Biso   1.000  H
  H61      1.0000 0.75570  0.13200  0.76820  Biso   1.000  H
  C44      1.0000 0.93833  0.92477  0.69957  Biso   1.000  C
  H62      1.0000 0.91290  0.89950  0.74140  Biso   1.000  H
  C45      1.0000 0.97842  0.01200  0.61714  Biso   1.000  C
  H63      1.0000 0.98500  0.05930  0.59170  Biso   1.000  H
  N19      1.0000 0.17578  0.75563  0.94065  Biso   1.000  N
  N20      1.0000 0.26661  0.81642  0.87169  Biso   1.000  N
  N21      1.0000 0.21158  0.86834  0.89804  Biso   1.000  N
  N22      1.0000 0.05343  0.68155  0.85402  Biso   1.000  N
  N23      1.0000 0.02001  0.73328  0.73894  Biso   1.000  N
  N24      1.0000 0.96539  0.75471  0.79642  Biso   1.000  N
  N25      1.0000 0.93126  0.99973  0.68155  Biso   1.000  N
  N26      1.0000 0.98707  0.89282  0.64853  Biso   1.000  N
  N27      1.0000 0.01354  0.94842  0.59554  Biso   1.000  N
  Zn4      1.0000 0.21734  0.98223  0.87180  Biso   1.000  Zn
  C46      1.0000 0.30642  0.86951  0.52087  Biso   1.000  C
  H64      1.0000 0.28290  0.91300  0.49230  Biso   1.000  H
  C47      1.0000 0.36084  0.90144  0.58529  Biso   1.000  C
  H65      1.0000 0.38490  0.85790  0.61320  Biso   1.000  H
  C48      1.0000 0.42495  0.94920  0.54510  Biso   1.000  C
  H66      1.0000 0.40270  0.99310  0.51740  Biso   1.000  H
  H67      1.0000 0.46000  0.96820  0.58630  Biso   1.000  H
  C49      1.0000 0.46860  0.89910  0.48440  Biso   1.000  C
  H68      1.0000 0.50850  0.92930  0.45850  Biso   1.000  H
  H69      1.0000 0.49310  0.85680  0.51290  Biso   1.000  H
  C50      1.0000 0.41430  0.86740  0.42020  Biso   1.000  C
  H70      1.0000 0.44290  0.83500  0.38300  Biso   1.000  H
  H71      1.0000 0.39250  0.90960  0.38940  Biso   1.000  H
  C51      1.0000 0.34973  0.82090  0.45880  Biso   1.000  C
  H72      1.0000 0.37100  0.77580  0.48520  Biso   1.000  H
  H73      1.0000 0.31440  0.80360  0.41690  Biso   1.000  H
  C52      1.0000 0.25078  0.75640  0.60138  Biso   1.000  C
  H74      1.0000 0.29670  0.73020  0.60970  Biso   1.000  H
  C53      1.0000 0.16889  0.84180  0.56205  Biso   1.000  C
  H75      1.0000 0.14670  0.88530  0.53900  Biso   1.000  H
  C54      1.0000 0.30977  0.92839  0.72517  Biso   1.000  C
  H76      1.0000 0.33120  0.88560  0.75040  Biso   1.000  H
  C55      1.0000 0.27752  0.01302  0.63577  Biso   1.000  C
  H77      1.0000 0.27320  0.03940  0.58690  Biso   1.000  H
  C56      1.0000 0.94317  0.11254  0.77064  Biso   1.000  C
  H78      1.0000 0.97050  0.14140  0.72840  Biso   1.000  H
  C57      1.0000 0.89850  0.17000  0.82380  Biso   1.000  C
  H79      1.0000 0.87180  0.14270  0.86670  Biso   1.000  H
  H80      1.0000 0.93400  0.20600  0.84870  Biso   1.000  H
  C58      1.0000 0.84060  0.21360  0.77160  Biso   1.000  C
  H81      1.0000 0.81120  0.24820  0.80570  Biso   1.000  H
  H82      1.0000 0.86800  0.24430  0.73180  Biso   1.000  H
  C59      1.0000 0.07523  0.06167  0.80043  Biso   1.000  C
  H83      1.0000 0.10050  0.08710  0.75860  Biso   1.000  H
  C60      1.0000 0.98800  0.02158  0.88286  Biso   1.000  C
  H84      1.0000 0.94070  0.01500  0.90830  Biso   1.000  H
  N28      1.0000 0.24437  0.82422  0.55935  Biso   1.000  N
  N29      1.0000 0.18358  0.73339  0.62831  Biso   1.000  N
  N30      1.0000 0.13166  0.78842  0.60196  Biso   1.000  N
  N31      1.0000 0.31845  0.94657  0.64598  Biso   1.000  N
  N32      1.0000 0.26672  0.97999  0.76106  Biso   1.000  N
  N33      1.0000 0.24529  0.03461  0.70358  Biso   1.000  N
  N34      1.0000 0.00027  0.06874  0.81845  Biso   1.000  N
  N35      1.0000 0.10718  0.01293  0.85147  Biso   1.000  N
  N36      1.0000 0.05158  0.98646  0.90446  Biso   1.000  N
  Zn5      1.0000 0.28266  0.48223  0.37820  Biso   1.000  Zn
  C61      1.0000 0.19358  0.36951  0.72913  Biso   1.000  C
  H85      1.0000 0.21710  0.41300  0.75770  Biso   1.000  H
  C62      1.0000 0.13916  0.40144  0.66471  Biso   1.000  C
  H86      1.0000 0.11510  0.35790  0.63680  Biso   1.000  H
  C63      1.0000 0.07505  0.44920  0.70490  Biso   1.000  C
  H87      1.0000 0.09730  0.49310  0.73260  Biso   1.000  H
  H88      1.0000 0.04000  0.46820  0.66370  Biso   1.000  H
  C64      1.0000 0.03140  0.39910  0.76560  Biso   1.000  C
  H89      1.0000 0.99150  0.42930  0.79150  Biso   1.000  H
  H90      1.0000 0.00690  0.35680  0.73710  Biso   1.000  H
  C65      1.0000 0.08570  0.36740  0.82980  Biso   1.000  C
  H91      1.0000 0.05710  0.33500  0.86700  Biso   1.000  H
  H92      1.0000 0.10750  0.40960  0.86060  Biso   1.000  H
  C66      1.0000 0.15027  0.32090  0.79120  Biso   1.000  C
  H93      1.0000 0.12900  0.27580  0.76480  Biso   1.000  H
  H94      1.0000 0.18560  0.30360  0.83310  Biso   1.000  H
  C67      1.0000 0.24922  0.25640  0.64862  Biso   1.000  C
  H95      1.0000 0.20330  0.23020  0.64030  Biso   1.000  H
  C68      1.0000 0.33111  0.34180  0.68795  Biso   1.000  C
  H96      1.0000 0.35330  0.38530  0.71100  Biso   1.000  H
  C69      1.0000 0.19023  0.42839  0.52483  Biso   1.000  C
  H97      1.0000 0.16880  0.38560  0.49960  Biso   1.000  H
  C70      1.0000 0.22248  0.51302  0.61423  Biso   1.000  C
  H98      1.0000 0.22680  0.53940  0.66310  Biso   1.000  H
  C71      1.0000 0.55683  0.61254  0.47936  Biso   1.000  C
  H99      1.0000 0.52950  0.64140  0.52160  Biso   1.000  H
  C72      1.0000 0.60150  0.67000  0.42620  Biso   1.000  C
  H100     1.0000 0.62820  0.64270  0.38330  Biso   1.000  H
  H101     1.0000 0.56600  0.70600  0.40130  Biso   1.000  H
  C73      1.0000 0.65940  0.71360  0.47840  Biso   1.000  C
  H102     1.0000 0.68880  0.74820  0.44430  Biso   1.000  H
  H103     1.0000 0.63200  0.74430  0.51820  Biso   1.000  H
  C74      1.0000 0.42477  0.56167  0.44957  Biso   1.000  C
  H104     1.0000 0.39950  0.58710  0.49140  Biso   1.000  H
  C75      1.0000 0.51200  0.52158  0.36714  Biso   1.000  C
  H105     1.0000 0.55930  0.51500  0.34170  Biso   1.000  H
  N37      1.0000 0.25563  0.32422  0.69065  Biso   1.000  N
  N38      1.0000 0.31642  0.23339  0.62169  Biso   1.000  N
  N39      1.0000 0.36834  0.28842  0.64804  Biso   1.000  N
  N40      1.0000 0.18155  0.44657  0.60402  Biso   1.000  N
  N41      1.0000 0.23328  0.47999  0.48894  Biso   1.000  N
  N42      1.0000 0.25471  0.53461  0.54642  Biso   1.000  N
  N43      1.0000 0.49973  0.56874  0.43155  Biso   1.000  N
  N44      1.0000 0.39282  0.51293  0.39853  Biso   1.000  N
  N45      1.0000 0.44842  0.48646  0.34554  Biso   1.000  N
  Zn6      1.0000 0.48223  0.28266  0.62180  Biso   1.000  Zn
  C76      1.0000 0.36951  0.19358  0.27087  Biso   1.000  C
  H106     1.0000 0.41300  0.21710  0.24230  Biso   1.000  H
  C77      1.0000 0.40144  0.13916  0.33529  Biso   1.000  C
  H107     1.0000 0.35790  0.11510  0.36320  Biso   1.000  H
  C78      1.0000 0.44920  0.07505  0.29510  Biso   1.000  C
  H108     1.0000 0.49310  0.09730  0.26740  Biso   1.000  H
  H109     1.0000 0.46820  0.04000  0.33630  Biso   1.000  H
  C79      1.0000 0.39910  0.03140  0.23440  Biso   1.000  C
  H110     1.0000 0.42930  0.99150  0.20850  Biso   1.000  H
  H111     1.0000 0.35680  0.00690  0.26290  Biso   1.000  H
  C80      1.0000 0.36740  0.08570  0.17020  Biso   1.000  C
  H112     1.0000 0.33500  0.05710  0.13300  Biso   1.000  H
  H113     1.0000 0.40960  0.10750  0.13940  Biso   1.000  H
  C81      1.0000 0.32090  0.15027  0.20880  Biso   1.000  C
  H114     1.0000 0.27580  0.12900  0.23520  Biso   1.000  H
  H115     1.0000 0.30360  0.18560  0.16690  Biso   1.000  H
  C82      1.0000 0.25640  0.24922  0.35138  Biso   1.000  C
  H116     1.0000 0.23020  0.20330  0.35970  Biso   1.000  H
  C83      1.0000 0.34180  0.33111  0.31205  Biso   1.000  C
  H117     1.0000 0.38530  0.35330  0.28900  Biso   1.000  H
  C84      1.0000 0.42839  0.19023  0.47517  Biso   1.000  C
  H118     1.0000 0.38560  0.16880  0.50040  Biso   1.000  H
  C85      1.0000 0.51302  0.22248  0.38577  Biso   1.000  C
  H119     1.0000 0.53940  0.22680  0.33690  Biso   1.000  H
  C86      1.0000 0.61254  0.55683  0.52064  Biso   1.000  C
  H120     1.0000 0.64140  0.52950  0.47840  Biso   1.000  H
  C87      1.0000 0.67000  0.60150  0.57380  Biso   1.000  C
  H121     1.0000 0.64270  0.62820  0.61670  Biso   1.000  H
  H122     1.0000 0.70600  0.56600  0.59870  Biso   1.000  H
  C88      1.0000 0.71360  0.65940  0.52160  Biso   1.000  C
  H123     1.0000 0.74820  0.68880  0.55570  Biso   1.000  H
  H124     1.0000 0.74430  0.63200  0.48180  Biso   1.000  H
  C89      1.0000 0.56167  0.42477  0.55043  Biso   1.000  C
  H125     1.0000 0.58710  0.39950  0.50860  Biso   1.000  H
  C90      1.0000 0.52158  0.51200  0.63286  Biso   1.000  C
  H126     1.0000 0.51500  0.55930  0.65830  Biso   1.000  H
  N46      1.0000 0.32422  0.25563  0.30935  Biso   1.000  N
  N47      1.0000 0.23339  0.31642  0.37831  Biso   1.000  N
  N48      1.0000 0.28842  0.36834  0.35196  Biso   1.000  N
  N49      1.0000 0.44657  0.18155  0.39598  Biso   1.000  N
  N50      1.0000 0.47999  0.23328  0.51106  Biso   1.000  N
  N51      1.0000 0.53461  0.25471  0.45358  Biso   1.000  N
  N52      1.0000 0.56874  0.49973  0.56845  Biso   1.000  N
  N53      1.0000 0.51293  0.39282  0.60147  Biso   1.000  N
  N54      1.0000 0.48646  0.44842  0.65446  Biso   1.000  N
  Zn7      1.0000 0.71734  0.51777  0.87820  Biso   1.000  Zn
  C91      1.0000 0.80642  0.63049  0.22913  Biso   1.000  C
  H127     1.0000 0.78290  0.58700  0.25770  Biso   1.000  H
  C92      1.0000 0.86084  0.59856  0.16471  Biso   1.000  C
  H128     1.0000 0.88490  0.64210  0.13680  Biso   1.000  H
  C93      1.0000 0.92495  0.55080  0.20490  Biso   1.000  C
  H129     1.0000 0.90270  0.50690  0.23260  Biso   1.000  H
  H130     1.0000 0.96000  0.53180  0.16370  Biso   1.000  H
  C94      1.0000 0.96860  0.60090  0.26560  Biso   1.000  C
  H131     1.0000 0.00850  0.57070  0.29150  Biso   1.000  H
  H132     1.0000 0.99310  0.64320  0.23710  Biso   1.000  H
  C95      1.0000 0.91430  0.63260  0.32980  Biso   1.000  C
  H133     1.0000 0.94290  0.66500  0.36700  Biso   1.000  H
  H134     1.0000 0.89250  0.59040  0.36060  Biso   1.000  H
  C96      1.0000 0.84973  0.67910  0.29120  Biso   1.000  C
  H135     1.0000 0.87100  0.72420  0.26480  Biso   1.000  H
  H136     1.0000 0.81440  0.69640  0.33310  Biso   1.000  H
  C97      1.0000 0.75078  0.74360  0.14862  Biso   1.000  C
  H137     1.0000 0.79670  0.76980  0.14030  Biso   1.000  H
  C98      1.0000 0.66889  0.65820  0.18795  Biso   1.000  C
  H138     1.0000 0.64670  0.61470  0.21100  Biso   1.000  H
  C99      1.0000 0.80977  0.57161  0.02483  Biso   1.000  C
  H139     1.0000 0.83120  0.61440  0.99960  Biso   1.000  H
  C100     1.0000 0.77752  0.48698  0.11423  Biso   1.000  C
  H140     1.0000 0.77320  0.46060  0.16310  Biso   1.000  H
  C101     1.0000 0.44317  0.38746  0.97936  Biso   1.000  C
  H141     1.0000 0.47050  0.35860  0.02160  Biso   1.000  H
  C102     1.0000 0.39850  0.33000  0.92620  Biso   1.000  C
  H142     1.0000 0.37180  0.35730  0.88330  Biso   1.000  H
  H143     1.0000 0.43400  0.29400  0.90130  Biso   1.000  H
  C103     1.0000 0.34060  0.28640  0.97840  Biso   1.000  C
  H144     1.0000 0.31120  0.25180  0.94430  Biso   1.000  H
  H145     1.0000 0.36800  0.25570  0.01820  Biso   1.000  H
  C104     1.0000 0.57523  0.43833  0.94957  Biso   1.000  C
  H146     1.0000 0.60050  0.41290  0.99140  Biso   1.000  H
  C105     1.0000 0.48800  0.47842  0.86714  Biso   1.000  C
  H147     1.0000 0.44070  0.48500  0.84170  Biso   1.000  H
  N55      1.0000 0.74437  0.67578  0.19065  Biso   1.000  N
  N56      1.0000 0.68358  0.76661  0.12169  Biso   1.000  N
  N57      1.0000 0.63166  0.71158  0.14804  Biso   1.000  N
  N58      1.0000 0.81845  0.55343  0.10402  Biso   1.000  N
  N59      1.0000 0.76672  0.52001  0.98894  Biso   1.000  N
  N60      1.0000 0.74529  0.46539  0.04642  Biso   1.000  N
  N61      1.0000 0.50027  0.43126  0.93155  Biso   1.000  N
  N62      1.0000 0.60718  0.48707  0.89853  Biso   1.000  N
  N63      1.0000 0.55158  0.51354  0.84554  Biso   1.000  N
  Zn8      1.0000 0.51777  0.71734  0.12180  Biso   1.000  Zn
  C106     1.0000 0.63049  0.80642  0.77087  Biso   1.000  C
  H148     1.0000 0.58700  0.78290  0.74230  Biso   1.000  H
  C107     1.0000 0.59856  0.86084  0.83529  Biso   1.000  C
  H149     1.0000 0.64210  0.88490  0.86320  Biso   1.000  H
  C108     1.0000 0.55080  0.92495  0.79510  Biso   1.000  C
  H150     1.0000 0.50690  0.90270  0.76740  Biso   1.000  H
  H151     1.0000 0.53180  0.96000  0.83630  Biso   1.000  H
  C109     1.0000 0.60090  0.96860  0.73440  Biso   1.000  C
  H152     1.0000 0.57070  0.00850  0.70850  Biso   1.000  H
  H153     1.0000 0.64320  0.99310  0.76290  Biso   1.000  H
  C110     1.0000 0.63260  0.91430  0.67020  Biso   1.000  C
  H154     1.0000 0.66500  0.94290  0.63300  Biso   1.000  H
  H155     1.0000 0.59040  0.89250  0.63940  Biso   1.000  H
  C111     1.0000 0.67910  0.84973  0.70880  Biso   1.000  C
  H156     1.0000 0.72420  0.87100  0.73520  Biso   1.000  H
  H157     1.0000 0.69640  0.81440  0.66690  Biso   1.000  H
  C112     1.0000 0.74360  0.75078  0.85138  Biso   1.000  C
  H158     1.0000 0.76980  0.79670  0.85970  Biso   1.000  H
  C113     1.0000 0.65820  0.66889  0.81205  Biso   1.000  C
  H159     1.0000 0.61470  0.64670  0.78900  Biso   1.000  H
  C114     1.0000 0.57161  0.80977  0.97517  Biso   1.000  C
  H160     1.0000 0.61440  0.83120  0.00040  Biso   1.000  H
  C115     1.0000 0.48698  0.77752  0.88577  Biso   1.000  C
  H161     1.0000 0.46060  0.77320  0.83690  Biso   1.000  H
  C116     1.0000 0.38746  0.44317  0.02064  Biso   1.000  C
  H162     1.0000 0.35860  0.47050  0.97840  Biso   1.000  H
  C117     1.0000 0.33000  0.39850  0.07380  Biso   1.000  C
  H163     1.0000 0.35730  0.37180  0.11670  Biso   1.000  H
  H164     1.0000 0.29400  0.43400  0.09870  Biso   1.000  H
  C118     1.0000 0.28640  0.34060  0.02160  Biso   1.000  C
  H165     1.0000 0.25180  0.31120  0.05570  Biso   1.000  H
  H166     1.0000 0.25570  0.36800  0.98180  Biso   1.000  H
  C119     1.0000 0.43833  0.57523  0.05043  Biso   1.000  C
  H167     1.0000 0.41290  0.60050  0.00860  Biso   1.000  H
  C120     1.0000 0.47842  0.48800  0.13286  Biso   1.000  C
  H168     1.0000 0.48500  0.44070  0.15830  Biso   1.000  H
  N64      1.0000 0.67578  0.74437  0.80935  Biso   1.000  N
  N65      1.0000 0.76661  0.68358  0.87831  Biso   1.000  N
  N66      1.0000 0.71158  0.63166  0.85196  Biso   1.000  N
  N67      1.0000 0.55343  0.81845  0.89598  Biso   1.000  N
  N68      1.0000 0.52001  0.76672  0.01106  Biso   1.000  N
  N69      1.0000 0.46539  0.74529  0.95358  Biso   1.000  N
  N70      1.0000 0.43126  0.50027  0.06845  Biso   1.000  N
  N71      1.0000 0.48707  0.60718  0.10147  Biso   1.000  N
  N72      1.0000 0.51354  0.55158  0.15446  Biso   1.000  N
