data_image0
_cell_length_a       24.063
_cell_length_b       10.0371
_cell_length_c       26.545
_cell_angle_alpha    90
_cell_angle_beta     103.064
_cell_angle_gamma    90

_symmetry_space_group_name_H-M    "P 1"
_symmetry_int_tables_number       1

loop_
  _symmetry_equiv_pos_as_xyz
  'x, y, z'

loop_
  _atom_site_label
  _atom_site_occupancy
  _atom_site_fract_x
  _atom_site_fract_y
  _atom_site_fract_z
  _atom_site_thermal_displace_type
  _atom_site_B_iso_or_equiv
  _atom_site_type_symbol
  Zn1      1.0000 0.77961  0.24662  0.15384  Biso   1.000  Zn
  N1       1.0000 0.70692  0.24340  0.18812  Biso   1.000  N
  N2       1.0000 0.52326  0.13360  0.23836  Biso   1.000  N
  C1       1.0000 0.67422  0.13440  0.18312  Biso   1.000  C
  H1       1.0000 0.68410  0.06230  0.16490  Biso   1.000  H
  C2       1.0000 0.62677  0.12350  0.20353  Biso   1.000  C
  H2       1.0000 0.60500  0.04600  0.19840  Biso   1.000  H
  C3       1.0000 0.61156  0.22580  0.23116  Biso   1.000  C
  C4       1.0000 0.64471  0.33820  0.23640  Biso   1.000  C
  H3       1.0000 0.63560  0.41060  0.25480  Biso   1.000  H
  C5       1.0000 0.69141  0.34490  0.21464  Biso   1.000  C
  H4       1.0000 0.71290  0.42270  0.21850  Biso   1.000  H
  C6       1.0000 0.56110  0.22000  0.25342  Biso   1.000  C
  H5       1.0000 0.55700  0.28070  0.27880  Biso   1.000  H
  Zn2      1.0000 0.22039  0.24662  0.34616  Biso   1.000  Zn
  N3       1.0000 0.29308  0.24340  0.31188  Biso   1.000  N
  N4       1.0000 0.47674  0.13360  0.26164  Biso   1.000  N
  C7       1.0000 0.32578  0.13440  0.31688  Biso   1.000  C
  H6       1.0000 0.31590  0.06230  0.33510  Biso   1.000  H
  C8       1.0000 0.37323  0.12350  0.29647  Biso   1.000  C
  H7       1.0000 0.39500  0.04600  0.30160  Biso   1.000  H
  C9       1.0000 0.38844  0.22580  0.26884  Biso   1.000  C
  C10      1.0000 0.35529  0.33820  0.26360  Biso   1.000  C
  H8       1.0000 0.36440  0.41060  0.24520  Biso   1.000  H
  C11      1.0000 0.30859  0.34490  0.28536  Biso   1.000  C
  H9       1.0000 0.28710  0.42270  0.28150  Biso   1.000  H
  C12      1.0000 0.43890  0.22000  0.24658  Biso   1.000  C
  H10      1.0000 0.44300  0.28070  0.22120  Biso   1.000  H
  N5       1.0000 0.78316  0.25490  0.92215  Biso   1.000  N
  N6       1.0000 0.95503  0.20870  0.07055  Biso   1.000  N
  N7       1.0000 0.98887  0.22990  0.12111  Biso   1.000  N
  N8       1.0000 0.16197  0.24540  0.26826  Biso   1.000  N
  C13      1.0000 0.78106  0.34170  0.95899  Biso   1.000  C
  H11      1.0000 0.75160  0.40390  0.95280  Biso   1.000  H
  C14      1.0000 0.81986  0.34620  0.00622  Biso   1.000  C
  H12      1.0000 0.81590  0.40880  0.03100  Biso   1.000  H
  C15      1.0000 0.86430  0.25690  0.01602  Biso   1.000  C
  C16      1.0000 0.86673  0.16560  0.97767  Biso   1.000  C
  H13      1.0000 0.89600  0.10320  0.98240  Biso   1.000  H
  C17      1.0000 0.82533  0.16770  0.93226  Biso   1.000  C
  H14      1.0000 0.82720  0.10400  0.90730  Biso   1.000  H
  C18      1.0000 0.90645  0.26310  0.06533  Biso   1.000  C
  H15      1.0000 0.89750  0.30740  0.09320  Biso   1.000  H
  C19      1.0000 0.04073  0.20460  0.12523  Biso   1.000  C
  H16      1.0000 0.05300  0.17510  0.09640  Biso   1.000  H
  C20      1.0000 0.10769  0.27460  0.26397  Biso   1.000  C
  H17      1.0000 0.09620  0.30380  0.29330  Biso   1.000  H
  C21      1.0000 0.06688  0.26420  0.21828  Biso   1.000  C
  H18      1.0000 0.02920  0.28700  0.21740  Biso   1.000  H
  C22      1.0000 0.08202  0.22000  0.17403  Biso   1.000  C
  C23      1.0000 0.13888  0.19010  0.17861  Biso   1.000  C
  H19      1.0000 0.15150  0.16040  0.15000  Biso   1.000  H
  C24      1.0000 0.17688  0.20410  0.22555  Biso   1.000  C
  H20      1.0000 0.21500  0.18370  0.22750  Biso   1.000  H
  N9       1.0000 0.21684  0.25490  0.57785  Biso   1.000  N
  N10      1.0000 0.04497  0.20870  0.42945  Biso   1.000  N
  N11      1.0000 0.01113  0.22990  0.37889  Biso   1.000  N
  N12      1.0000 0.83803  0.24540  0.23174  Biso   1.000  N
  C25      1.0000 0.21894  0.34170  0.54101  Biso   1.000  C
  H21      1.0000 0.24840  0.40390  0.54720  Biso   1.000  H
  C26      1.0000 0.18014  0.34620  0.49378  Biso   1.000  C
  H22      1.0000 0.18410  0.40880  0.46900  Biso   1.000  H
  C27      1.0000 0.13570  0.25690  0.48398  Biso   1.000  C
  C28      1.0000 0.13327  0.16560  0.52233  Biso   1.000  C
  H23      1.0000 0.10400  0.10320  0.51760  Biso   1.000  H
  C29      1.0000 0.17467  0.16770  0.56774  Biso   1.000  C
  H24      1.0000 0.17280  0.10400  0.59270  Biso   1.000  H
  C30      1.0000 0.09355  0.26310  0.43467  Biso   1.000  C
  H25      1.0000 0.10250  0.30740  0.40680  Biso   1.000  H
  C31      1.0000 0.95927  0.20460  0.37477  Biso   1.000  C
  H26      1.0000 0.94700  0.17510  0.40360  Biso   1.000  H
  C32      1.0000 0.89231  0.27460  0.23603  Biso   1.000  C
  H27      1.0000 0.90380  0.30380  0.20670  Biso   1.000  H
  C33      1.0000 0.93312  0.26420  0.28172  Biso   1.000  C
  H28      1.0000 0.97080  0.28700  0.28260  Biso   1.000  H
  C34      1.0000 0.91798  0.22000  0.32597  Biso   1.000  C
  C35      1.0000 0.86112  0.19010  0.32139  Biso   1.000  C
  H29      1.0000 0.84850  0.16040  0.35000  Biso   1.000  H
  C36      1.0000 0.82312  0.20410  0.27445  Biso   1.000  C
  H30      1.0000 0.78500  0.18370  0.27250  Biso   1.000  H
  N13      1.0000 0.71684  0.24510  0.07785  Biso   1.000  N
  N14      1.0000 0.54497  0.29130  0.92945  Biso   1.000  N
  N15      1.0000 0.51113  0.27010  0.87889  Biso   1.000  N
  N16      1.0000 0.33803  0.25460  0.73174  Biso   1.000  N
  C37      1.0000 0.71894  0.15830  0.04101  Biso   1.000  C
  H31      1.0000 0.74840  0.09610  0.04720  Biso   1.000  H
  C38      1.0000 0.68014  0.15380  0.99378  Biso   1.000  C
  H32      1.0000 0.68410  0.09120  0.96900  Biso   1.000  H
  C39      1.0000 0.63570  0.24310  0.98398  Biso   1.000  C
  C40      1.0000 0.63327  0.33440  0.02233  Biso   1.000  C
  H33      1.0000 0.60400  0.39680  0.01760  Biso   1.000  H
  C41      1.0000 0.67467  0.33230  0.06774  Biso   1.000  C
  H34      1.0000 0.67280  0.39600  0.09270  Biso   1.000  H
  C42      1.0000 0.59355  0.23690  0.93467  Biso   1.000  C
  H35      1.0000 0.60250  0.19260  0.90680  Biso   1.000  H
  C43      1.0000 0.45927  0.29540  0.87477  Biso   1.000  C
  H36      1.0000 0.44700  0.32490  0.90360  Biso   1.000  H
  C44      1.0000 0.39231  0.22540  0.73603  Biso   1.000  C
  H37      1.0000 0.40380  0.19620  0.70670  Biso   1.000  H
  C45      1.0000 0.43312  0.23580  0.78172  Biso   1.000  C
  H38      1.0000 0.47080  0.21300  0.78260  Biso   1.000  H
  C46      1.0000 0.41798  0.28000  0.82597  Biso   1.000  C
  C47      1.0000 0.36112  0.30990  0.82139  Biso   1.000  C
  H39      1.0000 0.34850  0.33960  0.85000  Biso   1.000  H
  C48      1.0000 0.32312  0.29590  0.77445  Biso   1.000  C
  H40      1.0000 0.28500  0.31630  0.77250  Biso   1.000  H
  N17      1.0000 0.28316  0.24510  0.42215  Biso   1.000  N
  N18      1.0000 0.45503  0.29130  0.57055  Biso   1.000  N
  N19      1.0000 0.48887  0.27010  0.62111  Biso   1.000  N
  N20      1.0000 0.66197  0.25460  0.76826  Biso   1.000  N
  C49      1.0000 0.28106  0.15830  0.45899  Biso   1.000  C
  H41      1.0000 0.25160  0.09610  0.45280  Biso   1.000  H
  C50      1.0000 0.31986  0.15380  0.50622  Biso   1.000  C
  H42      1.0000 0.31590  0.09120  0.53100  Biso   1.000  H
  C51      1.0000 0.36430  0.24310  0.51602  Biso   1.000  C
  C52      1.0000 0.36673  0.33440  0.47767  Biso   1.000  C
  H43      1.0000 0.39600  0.39680  0.48240  Biso   1.000  H
  C53      1.0000 0.32533  0.33230  0.43226  Biso   1.000  C
  H44      1.0000 0.32720  0.39600  0.40730  Biso   1.000  H
  C54      1.0000 0.40645  0.23690  0.56533  Biso   1.000  C
  H45      1.0000 0.39750  0.19260  0.59320  Biso   1.000  H
  C55      1.0000 0.54073  0.29540  0.62523  Biso   1.000  C
  H46      1.0000 0.55300  0.32490  0.59640  Biso   1.000  H
  C56      1.0000 0.60769  0.22540  0.76397  Biso   1.000  C
  H47      1.0000 0.59620  0.19620  0.79330  Biso   1.000  H
  C57      1.0000 0.56688  0.23580  0.71828  Biso   1.000  C
  H48      1.0000 0.52920  0.21300  0.71740  Biso   1.000  H
  C58      1.0000 0.58202  0.28000  0.67403  Biso   1.000  C
  C59      1.0000 0.63888  0.30990  0.67861  Biso   1.000  C
  H49      1.0000 0.65150  0.33960  0.65000  Biso   1.000  H
  C60      1.0000 0.67688  0.29590  0.72555  Biso   1.000  C
  H50      1.0000 0.71500  0.31630  0.72750  Biso   1.000  H
  Zn3      1.0000 0.72039  0.25338  0.84616  Biso   1.000  Zn
  N21      1.0000 0.79308  0.25660  0.81188  Biso   1.000  N
  N22      1.0000 0.97674  0.36640  0.76164  Biso   1.000  N
  C61      1.0000 0.82578  0.36560  0.81688  Biso   1.000  C
  H51      1.0000 0.81590  0.43770  0.83510  Biso   1.000  H
  C62      1.0000 0.87323  0.37650  0.79647  Biso   1.000  C
  H52      1.0000 0.89500  0.45400  0.80160  Biso   1.000  H
  C63      1.0000 0.88844  0.27420  0.76884  Biso   1.000  C
  C64      1.0000 0.85529  0.16180  0.76360  Biso   1.000  C
  H53      1.0000 0.86440  0.08940  0.74520  Biso   1.000  H
  C65      1.0000 0.80859  0.15510  0.78536  Biso   1.000  C
  H54      1.0000 0.78710  0.07730  0.78150  Biso   1.000  H
  C66      1.0000 0.93890  0.28000  0.74658  Biso   1.000  C
  H55      1.0000 0.94300  0.21930  0.72120  Biso   1.000  H
  Zn4      1.0000 0.27961  0.25338  0.65384  Biso   1.000  Zn
  N23      1.0000 0.20692  0.25660  0.68812  Biso   1.000  N
  N24      1.0000 0.02326  0.36640  0.73836  Biso   1.000  N
  C67      1.0000 0.17422  0.36560  0.68312  Biso   1.000  C
  H56      1.0000 0.18410  0.43770  0.66490  Biso   1.000  H
  C68      1.0000 0.12677  0.37650  0.70353  Biso   1.000  C
  H57      1.0000 0.10500  0.45400  0.69840  Biso   1.000  H
  C69      1.0000 0.11156  0.27420  0.73116  Biso   1.000  C
  C70      1.0000 0.14471  0.16180  0.73640  Biso   1.000  C
  H58      1.0000 0.13560  0.08940  0.75480  Biso   1.000  H
  C71      1.0000 0.19141  0.15510  0.71464  Biso   1.000  C
  H59      1.0000 0.21290  0.07730  0.71850  Biso   1.000  H
  C72      1.0000 0.06110  0.28000  0.75342  Biso   1.000  C
  H60      1.0000 0.05700  0.21930  0.77880  Biso   1.000  H
  Zn5      1.0000 0.27961  0.74662  0.15384  Biso   1.000  Zn
  N25      1.0000 0.20692  0.74340  0.18812  Biso   1.000  N
  N26      1.0000 0.02326  0.63360  0.23836  Biso   1.000  N
  C73      1.0000 0.17422  0.63440  0.18312  Biso   1.000  C
  H61      1.0000 0.18410  0.56230  0.16490  Biso   1.000  H
  C74      1.0000 0.12677  0.62350  0.20353  Biso   1.000  C
  H62      1.0000 0.10500  0.54600  0.19840  Biso   1.000  H
  C75      1.0000 0.11156  0.72580  0.23116  Biso   1.000  C
  C76      1.0000 0.14471  0.83820  0.23640  Biso   1.000  C
  H63      1.0000 0.13560  0.91060  0.25480  Biso   1.000  H
  C77      1.0000 0.19141  0.84490  0.21464  Biso   1.000  C
  H64      1.0000 0.21290  0.92270  0.21850  Biso   1.000  H
  C78      1.0000 0.06110  0.72000  0.25342  Biso   1.000  C
  H65      1.0000 0.05700  0.78070  0.27880  Biso   1.000  H
  Zn6      1.0000 0.72039  0.74662  0.34616  Biso   1.000  Zn
  N27      1.0000 0.79308  0.74340  0.31188  Biso   1.000  N
  N28      1.0000 0.97674  0.63360  0.26164  Biso   1.000  N
  C79      1.0000 0.82578  0.63440  0.31688  Biso   1.000  C
  H66      1.0000 0.81590  0.56230  0.33510  Biso   1.000  H
  C80      1.0000 0.87323  0.62350  0.29647  Biso   1.000  C
  H67      1.0000 0.89500  0.54600  0.30160  Biso   1.000  H
  C81      1.0000 0.88844  0.72580  0.26884  Biso   1.000  C
  C82      1.0000 0.85529  0.83820  0.26360  Biso   1.000  C
  H68      1.0000 0.86440  0.91060  0.24520  Biso   1.000  H
  C83      1.0000 0.80859  0.84490  0.28536  Biso   1.000  C
  H69      1.0000 0.78710  0.92270  0.28150  Biso   1.000  H
  C84      1.0000 0.93890  0.72000  0.24658  Biso   1.000  C
  H70      1.0000 0.94300  0.78070  0.22120  Biso   1.000  H
  N29      1.0000 0.28316  0.75490  0.92215  Biso   1.000  N
  N30      1.0000 0.45503  0.70870  0.07055  Biso   1.000  N
  N31      1.0000 0.48887  0.72990  0.12111  Biso   1.000  N
  N32      1.0000 0.66197  0.74540  0.26826  Biso   1.000  N
  C85      1.0000 0.28106  0.84170  0.95899  Biso   1.000  C
  H71      1.0000 0.25160  0.90390  0.95280  Biso   1.000  H
  C86      1.0000 0.31986  0.84620  0.00622  Biso   1.000  C
  H72      1.0000 0.31590  0.90880  0.03100  Biso   1.000  H
  C87      1.0000 0.36430  0.75690  0.01602  Biso   1.000  C
  C88      1.0000 0.36673  0.66560  0.97767  Biso   1.000  C
  H73      1.0000 0.39600  0.60320  0.98240  Biso   1.000  H
  C89      1.0000 0.32533  0.66770  0.93226  Biso   1.000  C
  H74      1.0000 0.32720  0.60400  0.90730  Biso   1.000  H
  C90      1.0000 0.40645  0.76310  0.06533  Biso   1.000  C
  H75      1.0000 0.39750  0.80740  0.09320  Biso   1.000  H
  C91      1.0000 0.54073  0.70460  0.12523  Biso   1.000  C
  H76      1.0000 0.55300  0.67510  0.09640  Biso   1.000  H
  C92      1.0000 0.60769  0.77460  0.26397  Biso   1.000  C
  H77      1.0000 0.59620  0.80380  0.29330  Biso   1.000  H
  C93      1.0000 0.56688  0.76420  0.21828  Biso   1.000  C
  H78      1.0000 0.52920  0.78700  0.21740  Biso   1.000  H
  C94      1.0000 0.58202  0.72000  0.17403  Biso   1.000  C
  C95      1.0000 0.63888  0.69010  0.17861  Biso   1.000  C
  H79      1.0000 0.65150  0.66040  0.15000  Biso   1.000  H
  C96      1.0000 0.67688  0.70410  0.22555  Biso   1.000  C
  H80      1.0000 0.71500  0.68370  0.22750  Biso   1.000  H
  N33      1.0000 0.71684  0.75490  0.57785  Biso   1.000  N
  N34      1.0000 0.54497  0.70870  0.42945  Biso   1.000  N
  N35      1.0000 0.51113  0.72990  0.37889  Biso   1.000  N
  N36      1.0000 0.33803  0.74540  0.23174  Biso   1.000  N
  C97      1.0000 0.71894  0.84170  0.54101  Biso   1.000  C
  H81      1.0000 0.74840  0.90390  0.54720  Biso   1.000  H
  C98      1.0000 0.68014  0.84620  0.49378  Biso   1.000  C
  H82      1.0000 0.68410  0.90880  0.46900  Biso   1.000  H
  C99      1.0000 0.63570  0.75690  0.48398  Biso   1.000  C
  C100     1.0000 0.63327  0.66560  0.52233  Biso   1.000  C
  H83      1.0000 0.60400  0.60320  0.51760  Biso   1.000  H
  C101     1.0000 0.67467  0.66770  0.56774  Biso   1.000  C
  H84      1.0000 0.67280  0.60400  0.59270  Biso   1.000  H
  C102     1.0000 0.59355  0.76310  0.43467  Biso   1.000  C
  H85      1.0000 0.60250  0.80740  0.40680  Biso   1.000  H
  C103     1.0000 0.45927  0.70460  0.37477  Biso   1.000  C
  H86      1.0000 0.44700  0.67510  0.40360  Biso   1.000  H
  C104     1.0000 0.39231  0.77460  0.23603  Biso   1.000  C
  H87      1.0000 0.40380  0.80380  0.20670  Biso   1.000  H
  C105     1.0000 0.43312  0.76420  0.28172  Biso   1.000  C
  H88      1.0000 0.47080  0.78700  0.28260  Biso   1.000  H
  C106     1.0000 0.41798  0.72000  0.32597  Biso   1.000  C
  C107     1.0000 0.36112  0.69010  0.32139  Biso   1.000  C
  H89      1.0000 0.34850  0.66040  0.35000  Biso   1.000  H
  C108     1.0000 0.32312  0.70410  0.27445  Biso   1.000  C
  H90      1.0000 0.28500  0.68370  0.27250  Biso   1.000  H
  N37      1.0000 0.21684  0.74510  0.07785  Biso   1.000  N
  N38      1.0000 0.04497  0.79130  0.92945  Biso   1.000  N
  N39      1.0000 0.01113  0.77010  0.87889  Biso   1.000  N
  N40      1.0000 0.83803  0.75460  0.73174  Biso   1.000  N
  C109     1.0000 0.21894  0.65830  0.04101  Biso   1.000  C
  H91      1.0000 0.24840  0.59610  0.04720  Biso   1.000  H
  C110     1.0000 0.18014  0.65380  0.99378  Biso   1.000  C
  H92      1.0000 0.18410  0.59120  0.96900  Biso   1.000  H
  C111     1.0000 0.13570  0.74310  0.98398  Biso   1.000  C
  C112     1.0000 0.13327  0.83440  0.02233  Biso   1.000  C
  H93      1.0000 0.10400  0.89680  0.01760  Biso   1.000  H
  C113     1.0000 0.17467  0.83230  0.06774  Biso   1.000  C
  H94      1.0000 0.17280  0.89600  0.09270  Biso   1.000  H
  C114     1.0000 0.09355  0.73690  0.93467  Biso   1.000  C
  H95      1.0000 0.10250  0.69260  0.90680  Biso   1.000  H
  C115     1.0000 0.95927  0.79540  0.87477  Biso   1.000  C
  H96      1.0000 0.94700  0.82490  0.90360  Biso   1.000  H
  C116     1.0000 0.89231  0.72540  0.73603  Biso   1.000  C
  H97      1.0000 0.90380  0.69620  0.70670  Biso   1.000  H
  C117     1.0000 0.93312  0.73580  0.78172  Biso   1.000  C
  H98      1.0000 0.97080  0.71300  0.78260  Biso   1.000  H
  C118     1.0000 0.91798  0.78000  0.82597  Biso   1.000  C
  C119     1.0000 0.86112  0.80990  0.82139  Biso   1.000  C
  H99      1.0000 0.84850  0.83960  0.85000  Biso   1.000  H
  C120     1.0000 0.82312  0.79590  0.77445  Biso   1.000  C
  H100     1.0000 0.78500  0.81630  0.77250  Biso   1.000  H
  N41      1.0000 0.78316  0.74510  0.42215  Biso   1.000  N
  N42      1.0000 0.95503  0.79130  0.57055  Biso   1.000  N
  N43      1.0000 0.98887  0.77010  0.62111  Biso   1.000  N
  N44      1.0000 0.16197  0.75460  0.76826  Biso   1.000  N
  C121     1.0000 0.78106  0.65830  0.45899  Biso   1.000  C
  H101     1.0000 0.75160  0.59610  0.45280  Biso   1.000  H
  C122     1.0000 0.81986  0.65380  0.50622  Biso   1.000  C
  H102     1.0000 0.81590  0.59120  0.53100  Biso   1.000  H
  C123     1.0000 0.86430  0.74310  0.51602  Biso   1.000  C
  C124     1.0000 0.86673  0.83440  0.47767  Biso   1.000  C
  H103     1.0000 0.89600  0.89680  0.48240  Biso   1.000  H
  C125     1.0000 0.82533  0.83230  0.43226  Biso   1.000  C
  H104     1.0000 0.82720  0.89600  0.40730  Biso   1.000  H
  C126     1.0000 0.90645  0.73690  0.56533  Biso   1.000  C
  H105     1.0000 0.89750  0.69260  0.59320  Biso   1.000  H
  C127     1.0000 0.04073  0.79540  0.62523  Biso   1.000  C
  H106     1.0000 0.05300  0.82490  0.59640  Biso   1.000  H
  C128     1.0000 0.10769  0.72540  0.76397  Biso   1.000  C
  H107     1.0000 0.09620  0.69620  0.79330  Biso   1.000  H
  C129     1.0000 0.06688  0.73580  0.71828  Biso   1.000  C
  H108     1.0000 0.02920  0.71300  0.71740  Biso   1.000  H
  C130     1.0000 0.08202  0.78000  0.67403  Biso   1.000  C
  C131     1.0000 0.13888  0.80990  0.67861  Biso   1.000  C
  H109     1.0000 0.15150  0.83960  0.65000  Biso   1.000  H
  C132     1.0000 0.17688  0.79590  0.72555  Biso   1.000  C
  H110     1.0000 0.21500  0.81630  0.72750  Biso   1.000  H
  Zn7      1.0000 0.22039  0.75338  0.84616  Biso   1.000  Zn
  N45      1.0000 0.29308  0.75660  0.81188  Biso   1.000  N
  N46      1.0000 0.47674  0.86640  0.76164  Biso   1.000  N
  C133     1.0000 0.32578  0.86560  0.81688  Biso   1.000  C
  H111     1.0000 0.31590  0.93770  0.83510  Biso   1.000  H
  C134     1.0000 0.37323  0.87650  0.79647  Biso   1.000  C
  H112     1.0000 0.39500  0.95400  0.80160  Biso   1.000  H
  C135     1.0000 0.38844  0.77420  0.76884  Biso   1.000  C
  C136     1.0000 0.35529  0.66180  0.76360  Biso   1.000  C
  H113     1.0000 0.36440  0.58940  0.74520  Biso   1.000  H
  C137     1.0000 0.30859  0.65510  0.78536  Biso   1.000  C
  H114     1.0000 0.28710  0.57730  0.78150  Biso   1.000  H
  C138     1.0000 0.43890  0.78000  0.74658  Biso   1.000  C
  H115     1.0000 0.44300  0.71930  0.72120  Biso   1.000  H
  Zn8      1.0000 0.77961  0.75338  0.65384  Biso   1.000  Zn
  N47      1.0000 0.70692  0.75660  0.68812  Biso   1.000  N
  N48      1.0000 0.52326  0.86640  0.73836  Biso   1.000  N
  C139     1.0000 0.67422  0.86560  0.68312  Biso   1.000  C
  H116     1.0000 0.68410  0.93770  0.66490  Biso   1.000  H
  C140     1.0000 0.62677  0.87650  0.70353  Biso   1.000  C
  H117     1.0000 0.60500  0.95400  0.69840  Biso   1.000  H
  C141     1.0000 0.61156  0.77420  0.73116  Biso   1.000  C
  C142     1.0000 0.64471  0.66180  0.73640  Biso   1.000  C
  H118     1.0000 0.63560  0.58940  0.75480  Biso   1.000  H
  C143     1.0000 0.69141  0.65510  0.71464  Biso   1.000  C
  H119     1.0000 0.71290  0.57730  0.71850  Biso   1.000  H
  C144     1.0000 0.56110  0.78000  0.75342  Biso   1.000  C
  H120     1.0000 0.55700  0.71930  0.77880  Biso   1.000  H
