data_image0
_cell_length_a       10.046
_cell_length_b       12.364
_cell_length_c       13.715
_cell_angle_alpha    79.292
_cell_angle_beta     71.928
_cell_angle_gamma    80.862

_symmetry_space_group_name_H-M    "P 1"
_symmetry_int_tables_number       1

loop_
  _symmetry_equiv_pos_as_xyz
  'x, y, z'

loop_
  _atom_site_label
  _atom_site_occupancy
  _atom_site_fract_x
  _atom_site_fract_y
  _atom_site_fract_z
  _atom_site_thermal_displace_type
  _atom_site_B_iso_or_equiv
  _atom_site_type_symbol
  Co1      1.0000 0.50710  0.64059  0.69108  Biso   1.000  Co
  O1       1.0000 0.89540  0.92240  0.14900  Biso   1.000  O
  O2       1.0000 0.77000  0.80740  0.11660  Biso   1.000  O
  O3       1.0000 0.68570  0.66940  0.60230  Biso   1.000  O
  O4       1.0000 0.82930  0.10930  0.98480  Biso   1.000  O
  O5       1.0000 0.83090  0.25320  0.06200  Biso   1.000  O
  O6       1.0000 0.56650  0.48630  0.69980  Biso   1.000  O
  N1       1.0000 0.32100  0.60870  0.78160  Biso   1.000  N
  H1       1.0000 0.32490  0.53820  0.81330  Biso   1.000  H
  H2       1.0000 0.29160  0.65360  0.83060  Biso   1.000  H
  N2       1.0000 0.43430  0.62530  0.58240  Biso   1.000  N
  N3       1.0000 0.45000  0.79990  0.67950  Biso   1.000  N
  H3       1.0000 0.47340  0.83640  0.61530  Biso   1.000  H
  H4       1.0000 0.35670  0.80680  0.70570  Biso   1.000  H
  N4       1.0000 0.57020  0.66130  0.80350  Biso   1.000  N
  C1       1.0000 0.22160  0.62640  0.71870  Biso   1.000  C
  H5       1.0000 0.19990  0.70630  0.70040  Biso   1.000  H
  C2       1.0000 0.08420  0.57700  0.77510  Biso   1.000  C
  H6       1.0000 0.03480  0.61250  0.83580  Biso   1.000  H
  H7       1.0000 0.10290  0.49840  0.79760  Biso   1.000  H
  C3       1.0000 0.99380  0.59560  0.69970  Biso   1.000  C
  H8       1.0000 0.90700  0.56200  0.73360  Biso   1.000  H
  H9       1.0000 0.96940  0.67450  0.68230  Biso   1.000  H
  C4       1.0000 0.06960  0.54720  0.60210  Biso   1.000  C
  H10      1.0000 0.08460  0.46730  0.61880  Biso   1.000  H
  H11      1.0000 0.01120  0.56400  0.55550  Biso   1.000  H
  C5       1.0000 0.20890  0.59110  0.54840  Biso   1.000  C
  H12      1.0000 0.19320  0.66880  0.52140  Biso   1.000  H
  H13      1.0000 0.25850  0.55170  0.49030  Biso   1.000  H
  C6       1.0000 0.29850  0.57850  0.62050  Biso   1.000  C
  H14      1.0000 0.31930  0.49880  0.64080  Biso   1.000  H
  C7       1.0000 0.49330  0.65430  0.48580  Biso   1.000  C
  H15      1.0000 0.44740  0.64350  0.43950  Biso   1.000  H
  C8       1.0000 0.62440  0.70200  0.44270  Biso   1.000  C
  C9       1.0000 0.66410  0.74240  0.33620  Biso   1.000  C
  H16      1.0000 0.60640  0.73480  0.29690  Biso   1.000  H
  C10      1.0000 0.78470  0.79270  0.28790  Biso   1.000  C
  C11      1.0000 0.87210  0.79680  0.34930  Biso   1.000  C
  H17      1.0000 0.95600  0.82860  0.31880  Biso   1.000  H
  C12      1.0000 0.83820  0.75580  0.45110  Biso   1.000  C
  H18      1.0000 0.90090  0.75890  0.48790  Biso   1.000  H
  C13      1.0000 0.71200  0.70870  0.50400  Biso   1.000  C
  C14      1.0000 0.81900  0.84400  0.17710  Biso   1.000  C
  C15      1.0000 0.51390  0.84780  0.74090  Biso   1.000  C
  H19      1.0000 0.60710  0.85330  0.69050  Biso   1.000  H
  C16      1.0000 0.47500  0.96690  0.74960  Biso   1.000  C
  H20      1.0000 0.37470  0.97950  0.78330  Biso   1.000  H
  H21      1.0000 0.49420  0.00920  0.68060  Biso   1.000  H
  C17      1.0000 0.55410  0.00780  0.81020  Biso   1.000  C
  H22      1.0000 0.63610  0.03860  0.76080  Biso   1.000  H
  H23      1.0000 0.49430  0.06840  0.84320  Biso   1.000  H
  C18      1.0000 0.60080  0.93310  0.88740  Biso   1.000  C
  H24      1.0000 0.52990  0.94050  0.95320  Biso   1.000  H
  H25      1.0000 0.68570  0.95790  0.89120  Biso   1.000  H
  C19      1.0000 0.63170  0.81290  0.87870  Biso   1.000  C
  H26      1.0000 0.73190  0.79650  0.84700  Biso   1.000  H
  H27      1.0000 0.60830  0.77100  0.94790  Biso   1.000  H
  C20      1.0000 0.55480  0.77560  0.81790  Biso   1.000  C
  H28      1.0000 0.46260  0.77610  0.87020  Biso   1.000  H
  C21      1.0000 0.61930  0.58420  0.86200  Biso   1.000  C
  H29      1.0000 0.64060  0.60440  0.91700  Biso   1.000  H
  C22      1.0000 0.64510  0.46970  0.85160  Biso   1.000  C
  C23      1.0000 0.62180  0.42770  0.76910  Biso   1.000  C
  C24      1.0000 0.66360  0.31410  0.76420  Biso   1.000  C
  H30      1.0000 0.65350  0.28490  0.70940  Biso   1.000  H
  C25      1.0000 0.71840  0.24410  0.83570  Biso   1.000  C
  H31      1.0000 0.74120  0.16920  0.83000  Biso   1.000  H
  C26      1.0000 0.74010  0.28570  0.91780  Biso   1.000  C
  C27      1.0000 0.70380  0.39600  0.92340  Biso   1.000  C
  H32      1.0000 0.71830  0.42420  0.97720  Biso   1.000  H
  C28      1.0000 0.80460  0.21020  0.99370  Biso   1.000  C
  Co2      1.0000 0.49290  0.35941  0.30892  Biso   1.000  Co
  O7       1.0000 0.10460  0.07760  0.85100  Biso   1.000  O
  O8       1.0000 0.23000  0.19260  0.88340  Biso   1.000  O
  O9       1.0000 0.31430  0.33060  0.39770  Biso   1.000  O
  O10      1.0000 0.17070  0.89070  0.01520  Biso   1.000  O
  O11      1.0000 0.16910  0.74680  0.93800  Biso   1.000  O
  O12      1.0000 0.43350  0.51370  0.30020  Biso   1.000  O
  N5       1.0000 0.67900  0.39130  0.21840  Biso   1.000  N
  H33      1.0000 0.67510  0.46180  0.18670  Biso   1.000  H
  H34      1.0000 0.70840  0.34640  0.16940  Biso   1.000  H
  N6       1.0000 0.56570  0.37470  0.41760  Biso   1.000  N
  N7       1.0000 0.55000  0.20010  0.32050  Biso   1.000  N
  H35      1.0000 0.52660  0.16360  0.38470  Biso   1.000  H
  H36      1.0000 0.64330  0.19320  0.29430  Biso   1.000  H
  N8       1.0000 0.42980  0.33870  0.19650  Biso   1.000  N
  C29      1.0000 0.77840  0.37360  0.28130  Biso   1.000  C
  H37      1.0000 0.80010  0.29370  0.29960  Biso   1.000  H
  C30      1.0000 0.91580  0.42300  0.22490  Biso   1.000  C
  H38      1.0000 0.96520  0.38750  0.16420  Biso   1.000  H
  H39      1.0000 0.89710  0.50160  0.20240  Biso   1.000  H
  C31      1.0000 0.00620  0.40440  0.30030  Biso   1.000  C
  H40      1.0000 0.09300  0.43800  0.26640  Biso   1.000  H
  H41      1.0000 0.03060  0.32550  0.31770  Biso   1.000  H
  C32      1.0000 0.93040  0.45280  0.39790  Biso   1.000  C
  H42      1.0000 0.91540  0.53270  0.38120  Biso   1.000  H
  H43      1.0000 0.98880  0.43600  0.44450  Biso   1.000  H
  C33      1.0000 0.79110  0.40890  0.45160  Biso   1.000  C
  H44      1.0000 0.80680  0.33120  0.47860  Biso   1.000  H
  H45      1.0000 0.74150  0.44830  0.50970  Biso   1.000  H
  C34      1.0000 0.70150  0.42150  0.37950  Biso   1.000  C
  H46      1.0000 0.68070  0.50120  0.35920  Biso   1.000  H
  C35      1.0000 0.50670  0.34570  0.51420  Biso   1.000  C
  H47      1.0000 0.55260  0.35650  0.56050  Biso   1.000  H
  C36      1.0000 0.37560  0.29800  0.55730  Biso   1.000  C
  C37      1.0000 0.33590  0.25760  0.66380  Biso   1.000  C
  H48      1.0000 0.39360  0.26520  0.70310  Biso   1.000  H
  C38      1.0000 0.21530  0.20730  0.71210  Biso   1.000  C
  C39      1.0000 0.12790  0.20320  0.65070  Biso   1.000  C
  H49      1.0000 0.04400  0.17140  0.68120  Biso   1.000  H
  C40      1.0000 0.16180  0.24420  0.54890  Biso   1.000  C
  H50      1.0000 0.09910  0.24110  0.51210  Biso   1.000  H
  C41      1.0000 0.28800  0.29130  0.49600  Biso   1.000  C
  C42      1.0000 0.18100  0.15600  0.82290  Biso   1.000  C
  C43      1.0000 0.48610  0.15220  0.25910  Biso   1.000  C
  H51      1.0000 0.39290  0.14670  0.30950  Biso   1.000  H
  C44      1.0000 0.52500  0.03310  0.25040  Biso   1.000  C
  H52      1.0000 0.62530  0.02050  0.21670  Biso   1.000  H
  H53      1.0000 0.50580  0.99080  0.31940  Biso   1.000  H
  C45      1.0000 0.44590  0.99220  0.18980  Biso   1.000  C
  H54      1.0000 0.36390  0.96140  0.23920  Biso   1.000  H
  H55      1.0000 0.50570  0.93160  0.15680  Biso   1.000  H
  C46      1.0000 0.39920  0.06690  0.11260  Biso   1.000  C
  H56      1.0000 0.47010  0.05950  0.04680  Biso   1.000  H
  H57      1.0000 0.31430  0.04210  0.10880  Biso   1.000  H
  C47      1.0000 0.36830  0.18710  0.12130  Biso   1.000  C
  H58      1.0000 0.26810  0.20350  0.15300  Biso   1.000  H
  H59      1.0000 0.39170  0.22900  0.05210  Biso   1.000  H
  C48      1.0000 0.44520  0.22440  0.18210  Biso   1.000  C
  H60      1.0000 0.53740  0.22390  0.12980  Biso   1.000  H
  C49      1.0000 0.38070  0.41580  0.13800  Biso   1.000  C
  H61      1.0000 0.35940  0.39560  0.08300  Biso   1.000  H
  C50      1.0000 0.35490  0.53030  0.14840  Biso   1.000  C
  C51      1.0000 0.37820  0.57230  0.23090  Biso   1.000  C
  C52      1.0000 0.33640  0.68590  0.23580  Biso   1.000  C
  H62      1.0000 0.34650  0.71510  0.29060  Biso   1.000  H
  C53      1.0000 0.28160  0.75590  0.16430  Biso   1.000  C
  H63      1.0000 0.25880  0.83080  0.17000  Biso   1.000  H
  C54      1.0000 0.25990  0.71430  0.08220  Biso   1.000  C
  C55      1.0000 0.29620  0.60400  0.07660  Biso   1.000  C
  H64      1.0000 0.28170  0.57580  0.02280  Biso   1.000  H
  C56      1.0000 0.19540  0.78980  0.00630  Biso   1.000  C
  Co3      1.0000 0.00000  0.00000  0.00000  Biso   1.000  Co
