data_image0
_cell_length_a       17.512
_cell_length_b       17.3638
_cell_length_c       28.101
_cell_angle_alpha    90
_cell_angle_beta     99.254
_cell_angle_gamma    90

_symmetry_space_group_name_H-M    "P 1"
_symmetry_int_tables_number       1

loop_
  _symmetry_equiv_pos_as_xyz
  'x, y, z'

loop_
  _atom_site_label
  _atom_site_occupancy
  _atom_site_fract_x
  _atom_site_fract_y
  _atom_site_fract_z
  _atom_site_thermal_displace_type
  _atom_site_B_iso_or_equiv
  _atom_site_type_symbol
  K1       1.0000 0.07313  0.01929  0.24758  Biso   1.000  K
  C1       1.0000 0.04930  0.15280  0.34110  Biso   1.000  C
  C2       1.0000 0.04280  0.24030  0.40140  Biso   1.000  C
  H1       1.0000 0.00350  0.23550  0.42290  Biso   1.000  H
  C3       1.0000 0.00820  0.27640  0.35270  Biso   1.000  C
  H2       1.0000 0.95340  0.29120  0.35170  Biso   1.000  H
  C4       1.0000 0.11000  0.35470  0.39000  Biso   1.000  C
  C5       1.0000 0.97250  0.21470  0.27110  Biso   1.000  C
  H3       1.0000 0.92230  0.23960  0.27130  Biso   1.000  H
  H4       1.0000 0.96300  0.16120  0.26090  Biso   1.000  H
  C6       1.0000 0.04150  0.39970  0.31190  Biso   1.000  C
  H5       1.0000 0.98600  0.41110  0.30630  Biso   1.000  H
  H6       1.0000 0.06890  0.44730  0.32300  Biso   1.000  H
  C7       1.0000 0.04920  0.21750  0.20660  Biso   1.000  C
  C8       1.0000 0.01330  0.33680  0.22990  Biso   1.000  C
  H7       1.0000 0.96030  0.35840  0.22470  Biso   1.000  H
  C9       1.0000 0.05470  0.34920  0.18600  Biso   1.000  C
  H8       1.0000 0.01970  0.37260  0.15870  Biso   1.000  H
  C10      1.0000 0.12090  0.41520  0.24910  Biso   1.000  C
  C11      1.0000 0.09900  0.24500  0.12920  Biso   1.000  C
  H9       1.0000 0.09180  0.18930  0.12500  Biso   1.000  H
  H10      1.0000 0.06570  0.27060  0.10250  Biso   1.000  H
  C12      1.0000 0.15940  0.43560  0.17060  Biso   1.000  C
  H11      1.0000 0.18250  0.48190  0.18690  Biso   1.000  H
  H12      1.0000 0.12330  0.45230  0.14220  Biso   1.000  H
  C13      1.0000 0.23360  0.20730  0.12830  Biso   1.000  C
  C14      1.0000 0.20730  0.33710  0.11570  Biso   1.000  C
  H13      1.0000 0.17360  0.36000  0.08760  Biso   1.000  H
  C15      1.0000 0.28790  0.32050  0.10370  Biso   1.000  C
  H14      1.0000 0.29200  0.33160  0.06970  Biso   1.000  H
  C16      1.0000 0.29860  0.41080  0.16720  Biso   1.000  C
  C17      1.0000 0.36520  0.19700  0.10700  Biso   1.000  C
  H15      1.0000 0.37900  0.21380  0.07620  Biso   1.000  H
  H16      1.0000 0.35150  0.14230  0.10400  Biso   1.000  H
  C18      1.0000 0.41630  0.39030  0.13340  Biso   1.000  C
  H17      1.0000 0.42110  0.38990  0.09910  Biso   1.000  H
  H18      1.0000 0.42700  0.44280  0.14540  Biso   1.000  H
  C19      1.0000 0.45810  0.14500  0.17380  Biso   1.000  C
  C20      1.0000 0.49230  0.26490  0.14220  Biso   1.000  C
  H19      1.0000 0.50900  0.26690  0.11020  Biso   1.000  H
  C21      1.0000 0.55700  0.23780  0.18150  Biso   1.000  C
  H20      1.0000 0.60660  0.23320  0.16910  Biso   1.000  H
  C22      1.0000 0.51260  0.35760  0.20320  Biso   1.000  C
  C23      1.0000 0.58160  0.10870  0.22420  Biso   1.000  C
  H21      1.0000 0.56180  0.05660  0.21650  Biso   1.000  H
  H22      1.0000 0.63310  0.11200  0.21480  Biso   1.000  H
  C24      1.0000 0.62190  0.30490  0.25790  Biso   1.000  C
  H23      1.0000 0.62400  0.35790  0.27010  Biso   1.000  H
  H24      1.0000 0.67110  0.29420  0.24680  Biso   1.000  H
  C25      1.0000 0.56240  0.06940  0.30350  Biso   1.000  C
  C26      1.0000 0.64030  0.17460  0.30050  Biso   1.000  C
  H25      1.0000 0.69250  0.17050  0.29150  Biso   1.000  H
  C27      1.0000 0.64180  0.15360  0.35530  Biso   1.000  C
  H26      1.0000 0.69460  0.14210  0.37230  Biso   1.000  H
  C28      1.0000 0.59580  0.28310  0.33890  Biso   1.000  C
  C29      1.0000 0.57950  0.04390  0.39260  Biso   1.000  C
  H27      1.0000 0.62440  0.04930  0.41820  Biso   1.000  H
  H28      1.0000 0.57380  0.98920  0.38410  Biso   1.000  H
  C30      1.0000 0.60740  0.23320  0.42340  Biso   1.000  C
  H29      1.0000 0.60970  0.28850  0.43060  Biso   1.000  H
  H30      1.0000 0.65230  0.20850  0.44270  Biso   1.000  H
  C31      1.0000 0.46710  0.02080  0.43200  Biso   1.000  C
  C32      1.0000 0.48310  0.14860  0.40990  Biso   1.000  C
  H31      1.0000 0.46660  0.16700  0.37640  Biso   1.000  H
  C33      1.0000 0.41450  0.14450  0.43750  Biso   1.000  C
  H32      1.0000 0.36670  0.16700  0.41910  Biso   1.000  H
  C34      1.0000 0.51310  0.21910  0.47890  Biso   1.000  C
  C35      1.0000 0.35740  0.03020  0.47710  Biso   1.000  C
  H33      1.0000 0.34440  0.97710  0.46700  Biso   1.000  H
  H34      1.0000 0.38520  0.02870  0.51030  Biso   1.000  H
  C36      1.0000 0.40400  0.19920  0.52230  Biso   1.000  C
  H35      1.0000 0.42050  0.15900  0.54630  Biso   1.000  H
  H36      1.0000 0.41960  0.24900  0.53720  Biso   1.000  H
  C37      1.0000 0.22480  0.06260  0.44110  Biso   1.000  C
  C38      1.0000 0.27590  0.13020  0.50990  Biso   1.000  C
  H37      1.0000 0.27980  0.10810  0.54270  Biso   1.000  H
  C39      1.0000 0.19220  0.16040  0.49100  Biso   1.000  C
  H38      1.0000 0.15730  0.15460  0.51520  Biso   1.000  H
  C40      1.0000 0.28040  0.26210  0.49200  Biso   1.000  C
  C41      1.0000 0.09060  0.10730  0.42510  Biso   1.000  C
  H39      1.0000 0.05630  0.11110  0.44930  Biso   1.000  H
  H40      1.0000 0.08230  0.05660  0.40980  Biso   1.000  H
  C42      1.0000 0.14200  0.29530  0.47110  Biso   1.000  C
  H41      1.0000 0.16300  0.34680  0.47940  Biso   1.000  H
  H42      1.0000 0.10380  0.28380  0.49200  Biso   1.000  H
  N1       1.0000 0.06880  0.16670  0.38840  Biso   1.000  N
  N2       1.0000 0.01640  0.21610  0.31928  Biso   1.000  N
  N3       1.0000 0.10480  0.29440  0.42130  Biso   1.000  N
  N4       1.0000 0.05690  0.34270  0.34960  Biso   1.000  N
  N5       1.0000 0.01330  0.25410  0.23730  Biso   1.000  N
  N6       1.0000 0.07470  0.26840  0.17540  Biso   1.000  N
  N7       1.0000 0.06400  0.37710  0.26740  Biso   1.000  N
  N8       1.0000 0.11750  0.39680  0.20200  Biso   1.000  N
  N9       1.0000 0.17870  0.26390  0.12710  Biso   1.000  N
  N10      1.0000 0.29800  0.23990  0.11580  Biso   1.000  N
  N11      1.0000 0.22030  0.39060  0.15472  Biso   1.000  N
  N12      1.0000 0.33750  0.37080  0.13800  Biso   1.000  N
  N13      1.0000 0.43290  0.20540  0.14440  Biso   1.000  N
  N14      1.0000 0.53070  0.16380  0.19580  Biso   1.000  N
  N15      1.0000 0.47280  0.34020  0.15840  Biso   1.000  N
  N16      1.0000 0.56050  0.29910  0.21780  Biso   1.000  N
  N17      1.0000 0.58870  0.12040  0.27483  Biso   1.000  N
  N18      1.0000 0.59260  0.08760  0.35070  Biso   1.000  N
  N19      1.0000 0.61350  0.25230  0.29740  Biso   1.000  N
  N20      1.0000 0.60990  0.22170  0.37320  Biso   1.000  N
  N21      1.0000 0.51020  0.07020  0.41048  Biso   1.000  N
  N22      1.0000 0.40740  0.06330  0.44576  Biso   1.000  N
  N23      1.0000 0.53550  0.20050  0.43635  Biso   1.000  N
  N24      1.0000 0.44310  0.18790  0.48139  Biso   1.000  N
  N25      1.0000 0.28790  0.07360  0.47572  Biso   1.000  N
  N26      1.0000 0.16920  0.11220  0.44882  Biso   1.000  N
  N27      1.0000 0.32100  0.19730  0.50978  Biso   1.000  N
  N28      1.0000 0.20380  0.23940  0.47928  Biso   1.000  N
  O1       1.0000 0.05840  0.09130  0.32089  Biso   1.000  O
  O2       1.0000 0.06040  0.14770  0.20549  Biso   1.000  O
  O3       1.0000 0.22540  0.14200  0.13890  Biso   1.000  O
  O4       1.0000 0.42470  0.08750  0.17820  Biso   1.000  O
  O5       1.0000 0.51950  0.01180  0.29231  Biso   1.000  O
  O6       1.0000 0.47550  0.95150  0.43731  Biso   1.000  O
  O7       1.0000 0.22060  0.01670  0.40839  Biso   1.000  O
  O8       1.0000 0.15650  0.40740  0.39854  Biso   1.000  O
  O9       1.0000 0.16860  0.45830  0.27117  Biso   1.000  O
  O10      1.0000 0.32180  0.46050  0.19608  Biso   1.000  O
  O11      1.0000 0.50800  0.41690  0.22409  Biso   1.000  O
  O12      1.0000 0.57320  0.34490  0.34770  Biso   1.000  O
  O13      1.0000 0.55040  0.26320  0.51027  Biso   1.000  O
  O14      1.0000 0.30510  0.32730  0.48690  Biso   1.000  O
  K2       1.0000 0.42687  0.51929  0.25242  Biso   1.000  K
  C43      1.0000 0.45070  0.65280  0.15890  Biso   1.000  C
  C44      1.0000 0.45720  0.74030  0.09860  Biso   1.000  C
  H43      1.0000 0.49650  0.73550  0.07710  Biso   1.000  H
  C45      1.0000 0.49180  0.77640  0.14730  Biso   1.000  C
  H44      1.0000 0.54660  0.79120  0.14830  Biso   1.000  H
  C46      1.0000 0.39000  0.85470  0.11000  Biso   1.000  C
  C47      1.0000 0.52750  0.71470  0.22890  Biso   1.000  C
  H45      1.0000 0.57770  0.73960  0.22870  Biso   1.000  H
  H46      1.0000 0.53700  0.66120  0.23910  Biso   1.000  H
  C48      1.0000 0.45850  0.89970  0.18810  Biso   1.000  C
  H47      1.0000 0.51400  0.91110  0.19370  Biso   1.000  H
  H48      1.0000 0.43110  0.94730  0.17700  Biso   1.000  H
  C49      1.0000 0.45080  0.71750  0.29340  Biso   1.000  C
  C50      1.0000 0.48670  0.83680  0.27010  Biso   1.000  C
  H49      1.0000 0.53970  0.85840  0.27530  Biso   1.000  H
  C51      1.0000 0.44530  0.84920  0.31400  Biso   1.000  C
  H50      1.0000 0.48030  0.87260  0.34130  Biso   1.000  H
  C52      1.0000 0.37910  0.91520  0.25090  Biso   1.000  C
  C53      1.0000 0.40100  0.74500  0.37080  Biso   1.000  C
  H51      1.0000 0.40820  0.68930  0.37500  Biso   1.000  H
  H52      1.0000 0.43430  0.77060  0.39750  Biso   1.000  H
  C54      1.0000 0.34060  0.93560  0.32940  Biso   1.000  C
  H53      1.0000 0.31750  0.98190  0.31310  Biso   1.000  H
  H54      1.0000 0.37670  0.95230  0.35780  Biso   1.000  H
  C55      1.0000 0.26640  0.70730  0.37170  Biso   1.000  C
  C56      1.0000 0.29270  0.83710  0.38430  Biso   1.000  C
  H55      1.0000 0.32640  0.86000  0.41240  Biso   1.000  H
  C57      1.0000 0.21210  0.82050  0.39630  Biso   1.000  C
  H56      1.0000 0.20800  0.83160  0.43030  Biso   1.000  H
  C58      1.0000 0.20140  0.91080  0.33280  Biso   1.000  C
  C59      1.0000 0.13480  0.69700  0.39300  Biso   1.000  C
  H57      1.0000 0.12100  0.71380  0.42380  Biso   1.000  H
  H58      1.0000 0.14850  0.64230  0.39600  Biso   1.000  H
  C60      1.0000 0.08370  0.89030  0.36660  Biso   1.000  C
  H59      1.0000 0.07890  0.88990  0.40090  Biso   1.000  H
  H60      1.0000 0.07300  0.94280  0.35460  Biso   1.000  H
  C61      1.0000 0.04190  0.64500  0.32620  Biso   1.000  C
  C62      1.0000 0.00770  0.76490  0.35780  Biso   1.000  C
  H61      1.0000 0.99100  0.76690  0.38980  Biso   1.000  H
  C63      1.0000 0.94300  0.73780  0.31850  Biso   1.000  C
  H62      1.0000 0.89340  0.73320  0.33090  Biso   1.000  H
  C64      1.0000 0.98740  0.85760  0.29680  Biso   1.000  C
  C65      1.0000 0.91840  0.60870  0.27580  Biso   1.000  C
  H63      1.0000 0.93820  0.55660  0.28350  Biso   1.000  H
  H64      1.0000 0.86690  0.61200  0.28520  Biso   1.000  H
  C66      1.0000 0.87810  0.80490  0.24210  Biso   1.000  C
  H65      1.0000 0.87600  0.85790  0.22990  Biso   1.000  H
  H66      1.0000 0.82890  0.79420  0.25320  Biso   1.000  H
  C67      1.0000 0.93760  0.56940  0.19650  Biso   1.000  C
  C68      1.0000 0.85970  0.67460  0.19950  Biso   1.000  C
  H67      1.0000 0.80750  0.67050  0.20850  Biso   1.000  H
  C69      1.0000 0.85820  0.65360  0.14470  Biso   1.000  C
  H68      1.0000 0.80540  0.64210  0.12770  Biso   1.000  H
  C70      1.0000 0.90420  0.78310  0.16110  Biso   1.000  C
  C71      1.0000 0.92050  0.54390  0.10740  Biso   1.000  C
  H69      1.0000 0.87560  0.54930  0.08180  Biso   1.000  H
  H70      1.0000 0.92620  0.48920  0.11590  Biso   1.000  H
  C72      1.0000 0.89260  0.73320  0.07660  Biso   1.000  C
  H71      1.0000 0.89030  0.78850  0.06940  Biso   1.000  H
  H72      1.0000 0.84770  0.70850  0.05730  Biso   1.000  H
  C73      1.0000 0.03290  0.52080  0.06800  Biso   1.000  C
  C74      1.0000 0.01690  0.64860  0.09010  Biso   1.000  C
  H73      1.0000 0.03340  0.66700  0.12360  Biso   1.000  H
  C75      1.0000 0.08550  0.64450  0.06250  Biso   1.000  C
  H74      1.0000 0.13330  0.66700  0.08090  Biso   1.000  H
  C76      1.0000 0.98690  0.71910  0.02110  Biso   1.000  C
  C77      1.0000 0.14260  0.53020  0.02290  Biso   1.000  C
  H75      1.0000 0.15560  0.47710  0.03300  Biso   1.000  H
  H76      1.0000 0.11480  0.52870  0.98970  Biso   1.000  H
  C78      1.0000 0.09600  0.69920  0.97770  Biso   1.000  C
  H77      1.0000 0.07950  0.65900  0.95370  Biso   1.000  H
  H78      1.0000 0.08040  0.74900  0.96280  Biso   1.000  H
  C79      1.0000 0.27520  0.56260  0.05890  Biso   1.000  C
  C80      1.0000 0.22410  0.63020  0.99010  Biso   1.000  C
  H79      1.0000 0.22020  0.60810  0.95730  Biso   1.000  H
  C81      1.0000 0.30780  0.66040  0.00900  Biso   1.000  C
  H80      1.0000 0.34270  0.65460  0.98480  Biso   1.000  H
  C82      1.0000 0.21960  0.76210  0.00800  Biso   1.000  C
  C83      1.0000 0.40940  0.60730  0.07490  Biso   1.000  C
  H81      1.0000 0.44370  0.61110  0.05070  Biso   1.000  H
  H82      1.0000 0.41770  0.55660  0.09020  Biso   1.000  H
  C84      1.0000 0.35800  0.79530  0.02890  Biso   1.000  C
  H83      1.0000 0.33700  0.84680  0.02060  Biso   1.000  H
  H84      1.0000 0.39620  0.78380  0.00800  Biso   1.000  H
  N29      1.0000 0.43120  0.66670  0.11160  Biso   1.000  N
  N30      1.0000 0.48360  0.71610  0.18072  Biso   1.000  N
  N31      1.0000 0.39520  0.79440  0.07870  Biso   1.000  N
  N32      1.0000 0.44310  0.84270  0.15040  Biso   1.000  N
  N33      1.0000 0.48670  0.75410  0.26270  Biso   1.000  N
  N34      1.0000 0.42530  0.76840  0.32460  Biso   1.000  N
  N35      1.0000 0.43600  0.87710  0.23260  Biso   1.000  N
  N36      1.0000 0.38250  0.89680  0.29800  Biso   1.000  N
  N37      1.0000 0.32130  0.76390  0.37290  Biso   1.000  N
  N38      1.0000 0.20200  0.73990  0.38420  Biso   1.000  N
  N39      1.0000 0.27970  0.89060  0.34528  Biso   1.000  N
  N40      1.0000 0.16250  0.87080  0.36200  Biso   1.000  N
  N41      1.0000 0.06710  0.70540  0.35560  Biso   1.000  N
  N42      1.0000 0.96930  0.66380  0.30420  Biso   1.000  N
  N43      1.0000 0.02720  0.84020  0.34160  Biso   1.000  N
  N44      1.0000 0.93950  0.79910  0.28220  Biso   1.000  N
  N45      1.0000 0.91130  0.62040  0.22517  Biso   1.000  N
  N46      1.0000 0.90740  0.58760  0.14930  Biso   1.000  N
  N47      1.0000 0.88650  0.75230  0.20260  Biso   1.000  N
  N48      1.0000 0.89010  0.72170  0.12680  Biso   1.000  N
  N49      1.0000 0.98980  0.57020  0.08952  Biso   1.000  N
  N50      1.0000 0.09260  0.56330  0.05424  Biso   1.000  N
  N51      1.0000 0.96450  0.70050  0.06365  Biso   1.000  N
  N52      1.0000 0.05690  0.68790  0.01861  Biso   1.000  N
  N53      1.0000 0.21210  0.57360  0.02428  Biso   1.000  N
  N54      1.0000 0.33080  0.61220  0.05118  Biso   1.000  N
  N55      1.0000 0.17900  0.69730  0.99022  Biso   1.000  N
  N56      1.0000 0.29620  0.73940  0.02072  Biso   1.000  N
  O15      1.0000 0.44160  0.59130  0.17911  Biso   1.000  O
  O16      1.0000 0.43960  0.64770  0.29451  Biso   1.000  O
  O17      1.0000 0.27460  0.64200  0.36110  Biso   1.000  O
  O18      1.0000 0.07530  0.58750  0.32180  Biso   1.000  O
  O19      1.0000 0.98050  0.51180  0.20769  Biso   1.000  O
  O20      1.0000 0.02450  0.45150  0.06269  Biso   1.000  O
  O21      1.0000 0.27940  0.51670  0.09161  Biso   1.000  O
  O22      1.0000 0.34350  0.90740  0.10146  Biso   1.000  O
  O23      1.0000 0.33140  0.95830  0.22883  Biso   1.000  O
  O24      1.0000 0.17820  0.96050  0.30392  Biso   1.000  O
  O25      1.0000 0.99200  0.91690  0.27591  Biso   1.000  O
  O26      1.0000 0.92680  0.84490  0.15230  Biso   1.000  O
  O27      1.0000 0.94960  0.76320  0.98973  Biso   1.000  O
  O28      1.0000 0.19490  0.82730  0.01310  Biso   1.000  O
  K3       1.0000 0.92687  0.98071  0.75242  Biso   1.000  K
  C85      1.0000 0.95070  0.84720  0.65890  Biso   1.000  C
  C86      1.0000 0.95720  0.75970  0.59860  Biso   1.000  C
  H85      1.0000 0.99650  0.76450  0.57710  Biso   1.000  H
  C87      1.0000 0.99180  0.72360  0.64730  Biso   1.000  C
  H86      1.0000 0.04660  0.70880  0.64830  Biso   1.000  H
  C88      1.0000 0.89000  0.64530  0.61000  Biso   1.000  C
  C89      1.0000 0.02750  0.78530  0.72890  Biso   1.000  C
  H87      1.0000 0.07770  0.76040  0.72870  Biso   1.000  H
  H88      1.0000 0.03700  0.83880  0.73910  Biso   1.000  H
  C90      1.0000 0.95850  0.60030  0.68810  Biso   1.000  C
  H89      1.0000 0.01400  0.58890  0.69370  Biso   1.000  H
  H90      1.0000 0.93110  0.55270  0.67700  Biso   1.000  H
  C91      1.0000 0.95080  0.78250  0.79340  Biso   1.000  C
  C92      1.0000 0.98670  0.66320  0.77010  Biso   1.000  C
  H91      1.0000 0.03970  0.64160  0.77530  Biso   1.000  H
  C93      1.0000 0.94530  0.65080  0.81400  Biso   1.000  C
  H92      1.0000 0.98030  0.62740  0.84130  Biso   1.000  H
  C94      1.0000 0.87910  0.58480  0.75090  Biso   1.000  C
  C95      1.0000 0.90100  0.75500  0.87080  Biso   1.000  C
  H93      1.0000 0.90820  0.81070  0.87500  Biso   1.000  H
  H94      1.0000 0.93430  0.72940  0.89750  Biso   1.000  H
  C96      1.0000 0.84060  0.56440  0.82940  Biso   1.000  C
  H95      1.0000 0.81750  0.51810  0.81310  Biso   1.000  H
  H96      1.0000 0.87670  0.54770  0.85780  Biso   1.000  H
  C97      1.0000 0.76640  0.79270  0.87170  Biso   1.000  C
  C98      1.0000 0.79270  0.66290  0.88430  Biso   1.000  C
  H97      1.0000 0.82640  0.64000  0.91240  Biso   1.000  H
  C99      1.0000 0.71210  0.67950  0.89630  Biso   1.000  C
  H98      1.0000 0.70800  0.66840  0.93030  Biso   1.000  H
  C100     1.0000 0.70140  0.58920  0.83280  Biso   1.000  C
  C101     1.0000 0.63480  0.80300  0.89300  Biso   1.000  C
  H99      1.0000 0.62100  0.78620  0.92380  Biso   1.000  H
  H100     1.0000 0.64850  0.85770  0.89600  Biso   1.000  H
  C102     1.0000 0.58370  0.60970  0.86660  Biso   1.000  C
  H101     1.0000 0.57890  0.61010  0.90090  Biso   1.000  H
  H102     1.0000 0.57300  0.55720  0.85460  Biso   1.000  H
  C103     1.0000 0.54190  0.85500  0.82620  Biso   1.000  C
  C104     1.0000 0.50770  0.73510  0.85780  Biso   1.000  C
  H103     1.0000 0.49100  0.73310  0.88980  Biso   1.000  H
  C105     1.0000 0.44300  0.76220  0.81850  Biso   1.000  C
  H104     1.0000 0.39340  0.76680  0.83090  Biso   1.000  H
  C106     1.0000 0.48740  0.64240  0.79680  Biso   1.000  C
  C107     1.0000 0.41840  0.89130  0.77580  Biso   1.000  C
  H105     1.0000 0.43820  0.94340  0.78350  Biso   1.000  H
  H106     1.0000 0.36690  0.88800  0.78520  Biso   1.000  H
  C108     1.0000 0.37810  0.69510  0.74210  Biso   1.000  C
  H107     1.0000 0.37600  0.64210  0.72990  Biso   1.000  H
  H108     1.0000 0.32890  0.70580  0.75320  Biso   1.000  H
  C109     1.0000 0.43760  0.93060  0.69650  Biso   1.000  C
  C110     1.0000 0.35970  0.82540  0.69950  Biso   1.000  C
  H109     1.0000 0.30750  0.82950  0.70850  Biso   1.000  H
  C111     1.0000 0.35820  0.84640  0.64470  Biso   1.000  C
  H110     1.0000 0.30540  0.85790  0.62770  Biso   1.000  H
  C112     1.0000 0.40420  0.71690  0.66110  Biso   1.000  C
  C113     1.0000 0.42050  0.95610  0.60740  Biso   1.000  C
  H111     1.0000 0.37560  0.95070  0.58180  Biso   1.000  H
  H112     1.0000 0.42620  0.01080  0.61590  Biso   1.000  H
  C114     1.0000 0.39260  0.76680  0.57660  Biso   1.000  C
  H113     1.0000 0.39030  0.71150  0.56940  Biso   1.000  H
  H114     1.0000 0.34770  0.79150  0.55730  Biso   1.000  H
  C115     1.0000 0.53290  0.97920  0.56800  Biso   1.000  C
  C116     1.0000 0.51690  0.85140  0.59010  Biso   1.000  C
  H115     1.0000 0.53340  0.83300  0.62360  Biso   1.000  H
  C117     1.0000 0.58550  0.85550  0.56250  Biso   1.000  C
  H116     1.0000 0.63330  0.83300  0.58090  Biso   1.000  H
  C118     1.0000 0.48690  0.78090  0.52110  Biso   1.000  C
  C119     1.0000 0.64260  0.96980  0.52290  Biso   1.000  C
  H117     1.0000 0.65560  0.02290  0.53300  Biso   1.000  H
  H118     1.0000 0.61480  0.97130  0.48970  Biso   1.000  H
  C120     1.0000 0.59600  0.80080  0.47770  Biso   1.000  C
  H119     1.0000 0.57950  0.84100  0.45370  Biso   1.000  H
  H120     1.0000 0.58040  0.75100  0.46280  Biso   1.000  H
  C121     1.0000 0.77520  0.93740  0.55890  Biso   1.000  C
  C122     1.0000 0.72410  0.86980  0.49010  Biso   1.000  C
  H121     1.0000 0.72020  0.89190  0.45730  Biso   1.000  H
  C123     1.0000 0.80780  0.83960  0.50900  Biso   1.000  C
  H122     1.0000 0.84270  0.84540  0.48480  Biso   1.000  H
  C124     1.0000 0.71960  0.73790  0.50800  Biso   1.000  C
  C125     1.0000 0.90940  0.89270  0.57490  Biso   1.000  C
  H123     1.0000 0.94370  0.88890  0.55070  Biso   1.000  H
  H124     1.0000 0.91770  0.94340  0.59020  Biso   1.000  H
  C126     1.0000 0.85800  0.70470  0.52890  Biso   1.000  C
  H125     1.0000 0.83700  0.65320  0.52060  Biso   1.000  H
  H126     1.0000 0.89620  0.71620  0.50800  Biso   1.000  H
  N57      1.0000 0.93120  0.83330  0.61160  Biso   1.000  N
  N58      1.0000 0.98360  0.78390  0.68072  Biso   1.000  N
  N59      1.0000 0.89520  0.70560  0.57870  Biso   1.000  N
  N60      1.0000 0.94310  0.65730  0.65040  Biso   1.000  N
  N61      1.0000 0.98670  0.74590  0.76270  Biso   1.000  N
  N62      1.0000 0.92530  0.73160  0.82460  Biso   1.000  N
  N63      1.0000 0.93600  0.62290  0.73260  Biso   1.000  N
  N64      1.0000 0.88250  0.60320  0.79800  Biso   1.000  N
  N65      1.0000 0.82130  0.73610  0.87290  Biso   1.000  N
  N66      1.0000 0.70200  0.76010  0.88420  Biso   1.000  N
  N67      1.0000 0.77970  0.60940  0.84528  Biso   1.000  N
  N68      1.0000 0.66250  0.62920  0.86200  Biso   1.000  N
  N69      1.0000 0.56710  0.79460  0.85560  Biso   1.000  N
  N70      1.0000 0.46930  0.83620  0.80420  Biso   1.000  N
  N71      1.0000 0.52720  0.65980  0.84160  Biso   1.000  N
  N72      1.0000 0.43950  0.70090  0.78220  Biso   1.000  N
  N73      1.0000 0.41130  0.87960  0.72517  Biso   1.000  N
  N74      1.0000 0.40740  0.91240  0.64930  Biso   1.000  N
  N75      1.0000 0.38650  0.74770  0.70260  Biso   1.000  N
  N76      1.0000 0.39010  0.77830  0.62680  Biso   1.000  N
  N77      1.0000 0.48980  0.92980  0.58952  Biso   1.000  N
  N78      1.0000 0.59260  0.93670  0.55424  Biso   1.000  N
  N79      1.0000 0.46450  0.79950  0.56365  Biso   1.000  N
  N80      1.0000 0.55690  0.81210  0.51861  Biso   1.000  N
  N81      1.0000 0.71210  0.92640  0.52428  Biso   1.000  N
  N82      1.0000 0.83080  0.88780  0.55118  Biso   1.000  N
  N83      1.0000 0.67900  0.80270  0.49022  Biso   1.000  N
  N84      1.0000 0.79620  0.76060  0.52072  Biso   1.000  N
  O29      1.0000 0.94160  0.90870  0.67911  Biso   1.000  O
  O30      1.0000 0.93960  0.85230  0.79451  Biso   1.000  O
  O31      1.0000 0.77460  0.85800  0.86110  Biso   1.000  O
  O32      1.0000 0.57530  0.91250  0.82180  Biso   1.000  O
  O33      1.0000 0.48050  0.98820  0.70769  Biso   1.000  O
  O34      1.0000 0.52450  0.04850  0.56269  Biso   1.000  O
  O35      1.0000 0.77940  0.98330  0.59161  Biso   1.000  O
  O36      1.0000 0.84350  0.59260  0.60146  Biso   1.000  O
  O37      1.0000 0.83140  0.54170  0.72883  Biso   1.000  O
  O38      1.0000 0.67820  0.53950  0.80392  Biso   1.000  O
  O39      1.0000 0.49200  0.58310  0.77591  Biso   1.000  O
  O40      1.0000 0.42680  0.65510  0.65230  Biso   1.000  O
  O41      1.0000 0.44960  0.73680  0.48973  Biso   1.000  O
  O42      1.0000 0.69490  0.67270  0.51310  Biso   1.000  O
  K4       1.0000 0.57313  0.48071  0.74758  Biso   1.000  K
  C127     1.0000 0.54930  0.34720  0.84110  Biso   1.000  C
  C128     1.0000 0.54280  0.25970  0.90140  Biso   1.000  C
  H127     1.0000 0.50350  0.26450  0.92290  Biso   1.000  H
  C129     1.0000 0.50820  0.22360  0.85270  Biso   1.000  C
  H128     1.0000 0.45340  0.20880  0.85170  Biso   1.000  H
  C130     1.0000 0.61000  0.14530  0.89000  Biso   1.000  C
  C131     1.0000 0.47250  0.28530  0.77110  Biso   1.000  C
  H129     1.0000 0.42230  0.26040  0.77130  Biso   1.000  H
  H130     1.0000 0.46300  0.33880  0.76090  Biso   1.000  H
  C132     1.0000 0.54150  0.10030  0.81190  Biso   1.000  C
  H131     1.0000 0.48600  0.08890  0.80630  Biso   1.000  H
  H132     1.0000 0.56890  0.05270  0.82300  Biso   1.000  H
  C133     1.0000 0.54920  0.28250  0.70660  Biso   1.000  C
  C134     1.0000 0.51330  0.16320  0.72990  Biso   1.000  C
  H133     1.0000 0.46030  0.14160  0.72470  Biso   1.000  H
  C135     1.0000 0.55470  0.15080  0.68600  Biso   1.000  C
  H134     1.0000 0.51970  0.12740  0.65870  Biso   1.000  H
  C136     1.0000 0.62090  0.08480  0.74910  Biso   1.000  C
  C137     1.0000 0.59900  0.25500  0.62920  Biso   1.000  C
  H135     1.0000 0.59180  0.31070  0.62500  Biso   1.000  H
  H136     1.0000 0.56570  0.22940  0.60250  Biso   1.000  H
  C138     1.0000 0.65940  0.06440  0.67060  Biso   1.000  C
  H137     1.0000 0.68250  0.01810  0.68690  Biso   1.000  H
  H138     1.0000 0.62330  0.04770  0.64220  Biso   1.000  H
  C139     1.0000 0.73360  0.29270  0.62830  Biso   1.000  C
  C140     1.0000 0.70730  0.16290  0.61570  Biso   1.000  C
  H139     1.0000 0.67360  0.14000  0.58760  Biso   1.000  H
  C141     1.0000 0.78790  0.17950  0.60370  Biso   1.000  C
  H140     1.0000 0.79200  0.16840  0.56970  Biso   1.000  H
  C142     1.0000 0.79860  0.08920  0.66720  Biso   1.000  C
  C143     1.0000 0.86520  0.30300  0.60700  Biso   1.000  C
  H141     1.0000 0.87900  0.28620  0.57620  Biso   1.000  H
  H142     1.0000 0.85150  0.35770  0.60400  Biso   1.000  H
  C144     1.0000 0.91630  0.10970  0.63340  Biso   1.000  C
  H143     1.0000 0.92110  0.11010  0.59910  Biso   1.000  H
  H144     1.0000 0.92700  0.05720  0.64540  Biso   1.000  H
  C145     1.0000 0.95810  0.35500  0.67380  Biso   1.000  C
  C146     1.0000 0.99230  0.23510  0.64220  Biso   1.000  C
  H145     1.0000 0.00900  0.23310  0.61020  Biso   1.000  H
  C147     1.0000 0.05700  0.26220  0.68150  Biso   1.000  C
  H146     1.0000 0.10660  0.26680  0.66910  Biso   1.000  H
  C148     1.0000 0.01260  0.14240  0.70320  Biso   1.000  C
  C149     1.0000 0.08160  0.39130  0.72420  Biso   1.000  C
  H147     1.0000 0.06180  0.44340  0.71650  Biso   1.000  H
  H148     1.0000 0.13310  0.38800  0.71480  Biso   1.000  H
  C150     1.0000 0.12190  0.19510  0.75790  Biso   1.000  C
  H149     1.0000 0.12400  0.14210  0.77010  Biso   1.000  H
  H150     1.0000 0.17110  0.20580  0.74680  Biso   1.000  H
  C151     1.0000 0.06240  0.43060  0.80350  Biso   1.000  C
  C152     1.0000 0.14030  0.32540  0.80050  Biso   1.000  C
  H151     1.0000 0.19250  0.32950  0.79150  Biso   1.000  H
  C153     1.0000 0.14180  0.34640  0.85530  Biso   1.000  C
  H152     1.0000 0.19460  0.35790  0.87230  Biso   1.000  H
  C154     1.0000 0.09580  0.21690  0.83890  Biso   1.000  C
  C155     1.0000 0.07950  0.45610  0.89260  Biso   1.000  C
  H153     1.0000 0.12440  0.45070  0.91820  Biso   1.000  H
  H154     1.0000 0.07380  0.51080  0.88410  Biso   1.000  H
  C156     1.0000 0.10740  0.26680  0.92340  Biso   1.000  C
  H155     1.0000 0.10970  0.21150  0.93060  Biso   1.000  H
  H156     1.0000 0.15230  0.29150  0.94270  Biso   1.000  H
  C157     1.0000 0.96710  0.47920  0.93200  Biso   1.000  C
  C158     1.0000 0.98310  0.35140  0.90990  Biso   1.000  C
  H157     1.0000 0.96660  0.33300  0.87640  Biso   1.000  H
  C159     1.0000 0.91450  0.35550  0.93750  Biso   1.000  C
  H158     1.0000 0.86670  0.33300  0.91910  Biso   1.000  H
  C160     1.0000 0.01310  0.28090  0.97890  Biso   1.000  C
  C161     1.0000 0.85740  0.46980  0.97710  Biso   1.000  C
  H159     1.0000 0.84440  0.52290  0.96700  Biso   1.000  H
  H160     1.0000 0.88520  0.47130  0.01030  Biso   1.000  H
  C162     1.0000 0.90400  0.30080  0.02230  Biso   1.000  C
  H161     1.0000 0.92050  0.34100  0.04630  Biso   1.000  H
  H162     1.0000 0.91960  0.25100  0.03720  Biso   1.000  H
  C163     1.0000 0.72480  0.43740  0.94110  Biso   1.000  C
  C164     1.0000 0.77590  0.36980  0.00990  Biso   1.000  C
  H163     1.0000 0.77980  0.39190  0.04270  Biso   1.000  H
  C165     1.0000 0.69220  0.33960  0.99100  Biso   1.000  C
  H164     1.0000 0.65730  0.34540  0.01520  Biso   1.000  H
  C166     1.0000 0.78040  0.23790  0.99200  Biso   1.000  C
  C167     1.0000 0.59060  0.39270  0.92510  Biso   1.000  C
  H165     1.0000 0.55630  0.38890  0.94930  Biso   1.000  H
  H166     1.0000 0.58230  0.44340  0.90980  Biso   1.000  H
  C168     1.0000 0.64200  0.20470  0.97110  Biso   1.000  C
  H167     1.0000 0.66300  0.15320  0.97940  Biso   1.000  H
  H168     1.0000 0.60380  0.21620  0.99200  Biso   1.000  H
  N85      1.0000 0.56880  0.33330  0.88840  Biso   1.000  N
  N86      1.0000 0.51640  0.28390  0.81928  Biso   1.000  N
  N87      1.0000 0.60480  0.20560  0.92130  Biso   1.000  N
  N88      1.0000 0.55690  0.15730  0.84960  Biso   1.000  N
  N89      1.0000 0.51330  0.24590  0.73730  Biso   1.000  N
  N90      1.0000 0.57470  0.23160  0.67540  Biso   1.000  N
  N91      1.0000 0.56400  0.12290  0.76740  Biso   1.000  N
  N92      1.0000 0.61750  0.10320  0.70200  Biso   1.000  N
  N93      1.0000 0.67870  0.23610  0.62710  Biso   1.000  N
  N94      1.0000 0.79800  0.26010  0.61580  Biso   1.000  N
  N95      1.0000 0.72030  0.10940  0.65472  Biso   1.000  N
  N96      1.0000 0.83750  0.12920  0.63800  Biso   1.000  N
  N97      1.0000 0.93290  0.29460  0.64440  Biso   1.000  N
  N98      1.0000 0.03070  0.33620  0.69580  Biso   1.000  N
  N99      1.0000 0.97280  0.15980  0.65840  Biso   1.000  N
  N100     1.0000 0.06050  0.20090  0.71780  Biso   1.000  N
  N101     1.0000 0.08870  0.37960  0.77483  Biso   1.000  N
  N102     1.0000 0.09260  0.41240  0.85070  Biso   1.000  N
  N103     1.0000 0.11350  0.24770  0.79740  Biso   1.000  N
  N104     1.0000 0.10990  0.27830  0.87320  Biso   1.000  N
  N105     1.0000 0.01020  0.42980  0.91048  Biso   1.000  N
  N106     1.0000 0.90740  0.43670  0.94576  Biso   1.000  N
  N107     1.0000 0.03550  0.29950  0.93635  Biso   1.000  N
  N108     1.0000 0.94310  0.31210  0.98139  Biso   1.000  N
  N109     1.0000 0.78790  0.42640  0.97572  Biso   1.000  N
  N110     1.0000 0.66920  0.38780  0.94882  Biso   1.000  N
  N111     1.0000 0.82100  0.30270  0.00978  Biso   1.000  N
  N112     1.0000 0.70380  0.26060  0.97928  Biso   1.000  N
  O43      1.0000 0.55840  0.40870  0.82089  Biso   1.000  O
  O44      1.0000 0.56040  0.35230  0.70549  Biso   1.000  O
  O45      1.0000 0.72540  0.35800  0.63890  Biso   1.000  O
  O46      1.0000 0.92470  0.41250  0.67820  Biso   1.000  O
  O47      1.0000 0.01950  0.48820  0.79231  Biso   1.000  O
  O48      1.0000 0.97550  0.54850  0.93731  Biso   1.000  O
  O49      1.0000 0.72060  0.48330  0.90839  Biso   1.000  O
  O50      1.0000 0.65650  0.09260  0.89854  Biso   1.000  O
  O51      1.0000 0.66860  0.04170  0.77117  Biso   1.000  O
  O52      1.0000 0.82180  0.03950  0.69608  Biso   1.000  O
  O53      1.0000 0.00800  0.08310  0.72409  Biso   1.000  O
  O54      1.0000 0.07320  0.15510  0.84770  Biso   1.000  O
  O55      1.0000 0.05040  0.23680  0.01027  Biso   1.000  O
  O56      1.0000 0.80510  0.17270  0.98690  Biso   1.000  O
