data_image0
_cell_length_a       8.8274
_cell_length_b       11.8547
_cell_length_c       12.9385
_cell_angle_alpha    97.006
_cell_angle_beta     107.992
_cell_angle_gamma    99.649

_symmetry_space_group_name_H-M    "P 1"
_symmetry_int_tables_number       1

loop_
  _symmetry_equiv_pos_as_xyz
  'x, y, z'

loop_
  _atom_site_label
  _atom_site_occupancy
  _atom_site_fract_x
  _atom_site_fract_y
  _atom_site_fract_z
  _atom_site_thermal_displace_type
  _atom_site_B_iso_or_equiv
  _atom_site_type_symbol
  Nd1      1.0000 0.46003  0.05462  0.34978  Biso   1.000  Nd
  O1       1.0000 0.47320  0.92820  0.18826  Biso   1.000  O
  C1       1.0000 0.62580  0.96920  0.20580  Biso   1.000  C
  S1       1.0000 0.55709  0.71114  0.82558  Biso   1.000  S
  S2       1.0000 0.21692  0.78494  0.39430  Biso   1.000  S
  O2       1.0000 0.70920  0.04100  0.29076  Biso   1.000  O
  C2       1.0000 0.69860  0.92600  0.12370  Biso   1.000  C
  C3       1.0000 0.60240  0.85220  0.02350  Biso   1.000  C
  H1       1.0000 0.48690  0.83420  0.00380  Biso   1.000  H
  O3       1.0000 0.51710  0.78790  0.74487  Biso   1.000  O
  C4       1.0000 0.67640  0.80520  0.95300  Biso   1.000  C
  O4       1.0000 0.41450  0.65060  0.84261  Biso   1.000  O
  C5       1.0000 0.86650  0.95560  0.15090  Biso   1.000  C
  H2       1.0000 0.93100  0.00870  0.21720  Biso   1.000  H
  O5       1.0000 0.66240  0.63850  0.80050  Biso   1.000  O
  C6       1.0000 0.84660  0.83040  0.98200  Biso   1.000  C
  H3       1.0000 0.89750  0.79590  0.93540  Biso   1.000  H
  O6       1.0000 0.18350  0.87250  0.05874  Biso   1.000  O
  O7       1.0000 0.20000  0.01925  0.19022  Biso   1.000  O
  C7       1.0000 0.94080  0.90750  0.08090  Biso   1.000  C
  O8       1.0000 0.58990  0.91982  0.45753  Biso   1.000  O
  C8       1.0000 0.12050  0.93810  0.11510  Biso   1.000  C
  O9       1.0000 0.73760  0.84360  0.58932  Biso   1.000  O
  C9       1.0000 0.69800  0.86050  0.49370  Biso   1.000  C
  O10      1.0000 0.47160  0.59490  0.11055  Biso   1.000  O
  C10      1.0000 0.77070  0.80600  0.41330  Biso   1.000  C
  O11      1.0000 0.69230  0.56730  0.06856  Biso   1.000  O
  C11      1.0000 0.66690  0.73980  0.31180  Biso   1.000  C
  H4       1.0000 0.55220  0.73240  0.29180  Biso   1.000  H
  O12      1.0000 0.24220  0.67950  0.34100  Biso   1.000  O
  C12      1.0000 0.73230  0.68490  0.24040  Biso   1.000  C
  O13      1.0000 0.25310  0.88530  0.34313  Biso   1.000  O
  C13      1.0000 0.62740  0.61020  0.13100  Biso   1.000  C
  C14      1.0000 0.93950  0.81870  0.44440  Biso   1.000  C
  H5       1.0000 0.00930  0.86250  0.51440  Biso   1.000  H
  O14      1.0000 0.29720  0.81080  0.51355  Biso   1.000  O
  C15      1.0000 0.00360  0.76500  0.36940  Biso   1.000  C
  C16      1.0000 0.90200  0.69900  0.26830  Biso   1.000  C
  H6       1.0000 0.94690  0.66350  0.21820  Biso   1.000  H
  Nd2      1.0000 0.53997  0.94538  0.65022  Biso   1.000  Nd
  O15      1.0000 0.52680  0.07180  0.81174  Biso   1.000  O
  C17      1.0000 0.37420  0.03080  0.79420  Biso   1.000  C
  S3       1.0000 0.44291  0.28886  0.17442  Biso   1.000  S
  S4       1.0000 0.78308  0.21506  0.60570  Biso   1.000  S
  O16      1.0000 0.29080  0.95900  0.70924  Biso   1.000  O
  C18      1.0000 0.30140  0.07400  0.87630  Biso   1.000  C
  C19      1.0000 0.39760  0.14780  0.97650  Biso   1.000  C
  H7       1.0000 0.51310  0.16580  0.99620  Biso   1.000  H
  O17      1.0000 0.48290  0.21210  0.25513  Biso   1.000  O
  C20      1.0000 0.32360  0.19480  0.04700  Biso   1.000  C
  O18      1.0000 0.58550  0.34940  0.15739  Biso   1.000  O
  C21      1.0000 0.13350  0.04440  0.84910  Biso   1.000  C
  H8       1.0000 0.06900  0.99130  0.78280  Biso   1.000  H
  O19      1.0000 0.33760  0.36150  0.19950  Biso   1.000  O
  C22      1.0000 0.15340  0.16960  0.01800  Biso   1.000  C
  H9       1.0000 0.10250  0.20410  0.06460  Biso   1.000  H
  O20      1.0000 0.81650  0.12750  0.94126  Biso   1.000  O
  O21      1.0000 0.80000  0.98075  0.80978  Biso   1.000  O
  C23      1.0000 0.05920  0.09250  0.91910  Biso   1.000  C
  O22      1.0000 0.41010  0.08018  0.54247  Biso   1.000  O
  C24      1.0000 0.87950  0.06190  0.88490  Biso   1.000  C
  O23      1.0000 0.26240  0.15640  0.41068  Biso   1.000  O
  C25      1.0000 0.30200  0.13950  0.50630  Biso   1.000  C
  O24      1.0000 0.52840  0.40510  0.88945  Biso   1.000  O
  C26      1.0000 0.22930  0.19400  0.58670  Biso   1.000  C
  O25      1.0000 0.30770  0.43270  0.93144  Biso   1.000  O
  C27      1.0000 0.33310  0.26020  0.68820  Biso   1.000  C
  H10      1.0000 0.44780  0.26760  0.70820  Biso   1.000  H
  O26      1.0000 0.75780  0.32050  0.65900  Biso   1.000  O
  C28      1.0000 0.26770  0.31510  0.75960  Biso   1.000  C
  O27      1.0000 0.74690  0.11470  0.65687  Biso   1.000  O
  C29      1.0000 0.37260  0.38980  0.86900  Biso   1.000  C
  C30      1.0000 0.06050  0.18130  0.55560  Biso   1.000  C
  H11      1.0000 0.99070  0.13750  0.48560  Biso   1.000  H
  O28      1.0000 0.70280  0.18920  0.48645  Biso   1.000  O
  C31      1.0000 0.99640  0.23500  0.63060  Biso   1.000  C
  C32      1.0000 0.09800  0.30100  0.73170  Biso   1.000  C
  H12      1.0000 0.05310  0.33650  0.78180  Biso   1.000  H
