data_image0
_cell_length_a       8.9149
_cell_length_b       11.7008
_cell_length_c       13.201
_cell_angle_alpha    97.532
_cell_angle_beta     107.085
_cell_angle_gamma    101.286

_symmetry_space_group_name_H-M    "P 1"
_symmetry_int_tables_number       1

loop_
  _symmetry_equiv_pos_as_xyz
  'x, y, z'

loop_
  _atom_site_label
  _atom_site_occupancy
  _atom_site_fract_x
  _atom_site_fract_y
  _atom_site_fract_z
  _atom_site_thermal_displace_type
  _atom_site_B_iso_or_equiv
  _atom_site_type_symbol
  La1      1.0000 0.54096  0.95393  0.65293  Biso   1.000  La
  S1       1.0000 0.79320  0.22213  0.59639  Biso   1.000  S
  S2       1.0000 0.55101  0.70854  0.81791  Biso   1.000  S
  C1       1.0000 0.07000  0.18880  0.55240  Biso   1.000  C
  H1       1.0000 0.00190  0.14620  0.48240  Biso   1.000  H
  O1       1.0000 0.70380  0.02550  0.28365  Biso   1.000  O
  O2       1.0000 0.46690  0.91700  0.17707  Biso   1.000  O
  C2       1.0000 0.83910  0.82450  0.97550  Biso   1.000  C
  H2       1.0000 0.88920  0.79130  0.92850  Biso   1.000  H
  O3       1.0000 0.19430  0.00610  0.18895  Biso   1.000  O
  C3       1.0000 0.93340  0.89750  0.07460  Biso   1.000  C
  O4       1.0000 0.30100  0.43140  0.92682  Biso   1.000  O
  O5       1.0000 0.52510  0.40670  0.89345  Biso   1.000  O
  O6       1.0000 0.41720  0.08950  0.54171  Biso   1.000  O
  C4       1.0000 0.00560  0.24060  0.62510  Biso   1.000  C
  C5       1.0000 0.30800  0.14350  0.50640  Biso   1.000  C
  C6       1.0000 0.67270  0.80040  0.94540  Biso   1.000  C
  O7       1.0000 0.50740  0.79150  0.74699  Biso   1.000  O
  C7       1.0000 0.33720  0.26450  0.68540  Biso   1.000  C
  H3       1.0000 0.45060  0.27150  0.70650  Biso   1.000  H
  C8       1.0000 0.59890  0.84480  0.01570  Biso   1.000  C
  H4       1.0000 0.48410  0.82700  0.99510  Biso   1.000  H
  O8       1.0000 0.41240  0.64020  0.83498  Biso   1.000  O
  O9       1.0000 0.71780  0.18010  0.48008  Biso   1.000  O
  C9       1.0000 0.86060  0.94350  0.14530  Biso   1.000  C
  H5       1.0000 0.92540  0.99380  0.21290  Biso   1.000  H
  O10      1.0000 0.65240  0.64090  0.78500  Biso   1.000  O
  O11      1.0000 0.75130  0.13080  0.65562  Biso   1.000  O
  C10      1.0000 0.23720  0.20040  0.58430  Biso   1.000  C
  C11      1.0000 0.61840  0.95690  0.19740  Biso   1.000  C
  O12      1.0000 0.26270  0.15280  0.41060  Biso   1.000  O
  C12      1.0000 0.69330  0.91550  0.11640  Biso   1.000  C
  O13      1.0000 0.17450  0.86170  0.05280  Biso   1.000  O
  O14      1.0000 0.76870  0.33430  0.63520  Biso   1.000  O
  C13      1.0000 0.27060  0.31880  0.75640  Biso   1.000  C
  C14      1.0000 0.10420  0.30560  0.72570  Biso   1.000  C
  H6       1.0000 0.05820  0.34150  0.77410  Biso   1.000  H
  C15      1.0000 0.37400  0.39040  0.86530  Biso   1.000  C
  C16      1.0000 0.11290  0.92700  0.11120  Biso   1.000  C
  La2      1.0000 0.45904  0.04607  0.34707  Biso   1.000  La
  S3       1.0000 0.20680  0.77787  0.40361  Biso   1.000  S
  S4       1.0000 0.44899  0.29146  0.18209  Biso   1.000  S
  C17      1.0000 0.93000  0.81120  0.44760  Biso   1.000  C
  H7       1.0000 0.99810  0.85380  0.51760  Biso   1.000  H
  O15      1.0000 0.29620  0.97450  0.71635  Biso   1.000  O
  O16      1.0000 0.53310  0.08300  0.82293  Biso   1.000  O
  C18      1.0000 0.16090  0.17550  0.02450  Biso   1.000  C
  H8       1.0000 0.11080  0.20870  0.07150  Biso   1.000  H
  O17      1.0000 0.80570  0.99390  0.81105  Biso   1.000  O
  C19      1.0000 0.06660  0.10250  0.92540  Biso   1.000  C
  O18      1.0000 0.69900  0.56860  0.07318  Biso   1.000  O
  O19      1.0000 0.47490  0.59330  0.10655  Biso   1.000  O
  O20      1.0000 0.58280  0.91050  0.45829  Biso   1.000  O
  C20      1.0000 0.99440  0.75940  0.37490  Biso   1.000  C
  C21      1.0000 0.69200  0.85650  0.49360  Biso   1.000  C
  C22      1.0000 0.32730  0.19960  0.05460  Biso   1.000  C
  O21      1.0000 0.49260  0.20850  0.25301  Biso   1.000  O
  C23      1.0000 0.66280  0.73550  0.31460  Biso   1.000  C
  H9       1.0000 0.54940  0.72850  0.29350  Biso   1.000  H
  C24      1.0000 0.40110  0.15520  0.98430  Biso   1.000  C
  H10      1.0000 0.51590  0.17300  0.00490  Biso   1.000  H
  O22      1.0000 0.58760  0.35980  0.16502  Biso   1.000  O
  O23      1.0000 0.28220  0.81990  0.51992  Biso   1.000  O
  C25      1.0000 0.13940  0.05650  0.85470  Biso   1.000  C
  H11      1.0000 0.07460  0.00620  0.78710  Biso   1.000  H
  O24      1.0000 0.34760  0.35910  0.21500  Biso   1.000  O
  O25      1.0000 0.24870  0.86920  0.34438  Biso   1.000  O
  C26      1.0000 0.76280  0.79960  0.41570  Biso   1.000  C
  C27      1.0000 0.38160  0.04310  0.80260  Biso   1.000  C
  O26      1.0000 0.73730  0.84720  0.58940  Biso   1.000  O
  C28      1.0000 0.30670  0.08450  0.88360  Biso   1.000  C
  O27      1.0000 0.82550  0.13830  0.94720  Biso   1.000  O
  O28      1.0000 0.23130  0.66570  0.36480  Biso   1.000  O
  C29      1.0000 0.72940  0.68120  0.24360  Biso   1.000  C
  C30      1.0000 0.89580  0.69440  0.27430  Biso   1.000  C
  H12      1.0000 0.94180  0.65850  0.22590  Biso   1.000  H
  C31      1.0000 0.62600  0.60960  0.13470  Biso   1.000  C
  C32      1.0000 0.88710  0.07300  0.88880  Biso   1.000  C
