data_image0
_cell_length_a       13.1562
_cell_length_b       14.1101
_cell_length_c       14.0702
_cell_angle_alpha    90
_cell_angle_beta     114.826
_cell_angle_gamma    90

_symmetry_space_group_name_H-M    "P 1"
_symmetry_int_tables_number       1

loop_
  _symmetry_equiv_pos_as_xyz
  'x, y, z'

loop_
  _atom_site_label
  _atom_site_occupancy
  _atom_site_fract_x
  _atom_site_fract_y
  _atom_site_fract_z
  _atom_site_thermal_displace_type
  _atom_site_B_iso_or_equiv
  _atom_site_type_symbol
  C1       1.0000 0.27950  0.05723  0.12918  Biso   1.000  C
  C2       1.0000 0.21598  0.10161  0.03365  Biso   1.000  C
  C3       1.0000 0.26002  0.17356  0.98793  Biso   1.000  C
  H1       1.0000 0.33360  0.19490  0.01430  Biso   1.000  H
  C4       1.0000 0.17429  0.20375  0.90002  Biso   1.000  C
  H2       1.0000 0.17750  0.25000  0.85430  Biso   1.000  H
  C5       1.0000 0.07653  0.15090  0.89002  Biso   1.000  C
  N1       1.0000 0.10349  0.08796  0.97265  Biso   1.000  N
  C6       1.0000 0.97043  0.16185  0.80855  Biso   1.000  C
  C7       1.0000 0.87653  0.10950  0.79689  Biso   1.000  C
  C8       1.0000 0.76800  0.12000  0.71059  Biso   1.000  C
  H3       1.0000 0.74940  0.16170  0.65460  Biso   1.000  H
  C9       1.0000 0.69815  0.05779  0.72638  Biso   1.000  C
  H4       1.0000 0.62290  0.04800  0.68310  Biso   1.000  H
  C10      1.0000 0.76413  0.00945  0.82436  Biso   1.000  C
  N2       1.0000 0.87324  0.04164  0.86657  Biso   1.000  N
  C11      1.0000 0.40273  0.08310  0.18340  Biso   1.000  C
  C12      1.0000 0.47562  0.05770  0.13820  Biso   1.000  C
  H5       1.0000 0.45010  0.02270  0.07660  Biso   1.000  H
  C13      1.0000 0.58530  0.08570  0.18690  Biso   1.000  C
  C14      1.0000 0.62530  0.13622  0.27830  Biso   1.000  C
  C15      1.0000 0.55674  0.16342  0.32620  Biso   1.000  C
  C16      1.0000 0.44317  0.13470  0.27572  Biso   1.000  C
  H6       1.0000 0.39440  0.15100  0.30540  Biso   1.000  H
  F1       1.0000 0.73725  0.15574  0.32570  Biso   1.000  F
  F2       1.0000 0.65850  0.05991  0.14587  Biso   1.000  F
  C17      1.0000 0.52600  0.22250  0.47230  Biso   1.000  C
  H7       1.0000 0.46390  0.26220  0.43070  Biso   1.000  H
  H8       1.0000 0.56580  0.25070  0.54000  Biso   1.000  H
  H9       1.0000 0.49870  0.16120  0.48020  Biso   1.000  H
  C18      1.0000 0.66240  0.30030  0.42500  Biso   1.000  C
  H10      1.0000 0.71740  0.28710  0.39860  Biso   1.000  H
  H11      1.0000 0.69910  0.32240  0.49590  Biso   1.000  H
  H12      1.0000 0.61180  0.34810  0.38250  Biso   1.000  H
  N3       1.0000 0.59907  0.21271  0.42186  Biso   1.000  N
  C19      1.0000 0.95959  0.23762  0.72897  Biso   1.000  C
  C20      1.0000 0.96304  0.21690  0.63504  Biso   1.000  C
  H13      1.0000 0.96580  0.15430  0.61570  Biso   1.000  H
  C21      1.0000 0.96240  0.29050  0.56928  Biso   1.000  C
  H14      1.0000 0.96400  0.27490  0.50570  Biso   1.000  H
  C22      1.0000 0.94986  0.40104  0.67961  Biso   1.000  C
  H15      1.0000 0.94240  0.46410  0.69480  Biso   1.000  H
  C23      1.0000 0.95004  0.33245  0.74998  Biso   1.000  C
  H16      1.0000 0.94380  0.34980  0.81110  Biso   1.000  H
  N4       1.0000 0.95981  0.38155  0.59120  Biso   1.000  N
  C24      1.0000 0.72050  0.94277  0.87082  Biso   1.000  C
  C25      1.0000 0.78402  0.89839  0.96635  Biso   1.000  C
  C26      1.0000 0.73998  0.82644  0.01207  Biso   1.000  C
  H17      1.0000 0.66640  0.80510  0.98570  Biso   1.000  H
  C27      1.0000 0.82571  0.79625  0.09998  Biso   1.000  C
  H18      1.0000 0.82250  0.75000  0.14570  Biso   1.000  H
  C28      1.0000 0.92347  0.84910  0.10998  Biso   1.000  C
  N5       1.0000 0.89651  0.91204  0.02735  Biso   1.000  N
  C29      1.0000 0.02957  0.83815  0.19145  Biso   1.000  C
  C30      1.0000 0.12347  0.89050  0.20311  Biso   1.000  C
  C31      1.0000 0.23200  0.88000  0.28941  Biso   1.000  C
  H19      1.0000 0.25060  0.83830  0.34540  Biso   1.000  H
  C32      1.0000 0.30185  0.94221  0.27362  Biso   1.000  C
  H20      1.0000 0.37710  0.95200  0.31690  Biso   1.000  H
  C33      1.0000 0.23587  0.99055  0.17564  Biso   1.000  C
  N6       1.0000 0.12676  0.95836  0.13343  Biso   1.000  N
  C34      1.0000 0.59727  0.91690  0.81660  Biso   1.000  C
  C35      1.0000 0.52438  0.94230  0.86180  Biso   1.000  C
  H21      1.0000 0.54990  0.97730  0.92340  Biso   1.000  H
  C36      1.0000 0.41470  0.91430  0.81310  Biso   1.000  C
  C37      1.0000 0.37470  0.86378  0.72170  Biso   1.000  C
  C38      1.0000 0.44326  0.83658  0.67380  Biso   1.000  C
  C39      1.0000 0.55683  0.86530  0.72428  Biso   1.000  C
  H22      1.0000 0.60560  0.84900  0.69460  Biso   1.000  H
  F3       1.0000 0.26275  0.84426  0.67430  Biso   1.000  F
  F4       1.0000 0.34150  0.94009  0.85413  Biso   1.000  F
  C40      1.0000 0.47400  0.77750  0.52770  Biso   1.000  C
  H23      1.0000 0.53610  0.73780  0.56930  Biso   1.000  H
  H24      1.0000 0.43420  0.74930  0.46000  Biso   1.000  H
  H25      1.0000 0.50130  0.83880  0.51980  Biso   1.000  H
  C41      1.0000 0.33760  0.69970  0.57500  Biso   1.000  C
  H26      1.0000 0.28260  0.71290  0.60140  Biso   1.000  H
  H27      1.0000 0.30090  0.67760  0.50410  Biso   1.000  H
  H28      1.0000 0.38820  0.65190  0.61750  Biso   1.000  H
  N7       1.0000 0.40093  0.78729  0.57814  Biso   1.000  N
  C42      1.0000 0.04041  0.76238  0.27103  Biso   1.000  C
  C43      1.0000 0.03696  0.78310  0.36496  Biso   1.000  C
  H29      1.0000 0.03420  0.84570  0.38430  Biso   1.000  H
  C44      1.0000 0.03760  0.70950  0.43072  Biso   1.000  C
  H30      1.0000 0.03600  0.72510  0.49430  Biso   1.000  H
  C45      1.0000 0.05014  0.59896  0.32039  Biso   1.000  C
  H31      1.0000 0.05760  0.53590  0.30520  Biso   1.000  H
  C46      1.0000 0.04996  0.66755  0.25002  Biso   1.000  C
  H32      1.0000 0.05620  0.65020  0.18890  Biso   1.000  H
  N8       1.0000 0.04019  0.61845  0.40880  Biso   1.000  N
  Ni1      1.0000 0.00000  0.00000  0.00000  Biso   1.000  Ni
  C47      1.0000 0.72050  0.55723  0.37082  Biso   1.000  C
  C48      1.0000 0.78402  0.60161  0.46635  Biso   1.000  C
  C49      1.0000 0.73998  0.67356  0.51207  Biso   1.000  C
  H33      1.0000 0.66640  0.69490  0.48570  Biso   1.000  H
  C50      1.0000 0.82571  0.70375  0.59998  Biso   1.000  C
  H34      1.0000 0.82250  0.75000  0.64570  Biso   1.000  H
  C51      1.0000 0.92347  0.65090  0.60998  Biso   1.000  C
  N9       1.0000 0.89651  0.58796  0.52735  Biso   1.000  N
  C52      1.0000 0.02957  0.66185  0.69145  Biso   1.000  C
  C53      1.0000 0.12347  0.60950  0.70311  Biso   1.000  C
  C54      1.0000 0.23200  0.62000  0.78941  Biso   1.000  C
  H35      1.0000 0.25060  0.66170  0.84540  Biso   1.000  H
  C55      1.0000 0.30185  0.55779  0.77362  Biso   1.000  C
  H36      1.0000 0.37710  0.54800  0.81690  Biso   1.000  H
  C56      1.0000 0.23587  0.50945  0.67564  Biso   1.000  C
  N10      1.0000 0.12676  0.54164  0.63343  Biso   1.000  N
  C57      1.0000 0.59727  0.58310  0.31660  Biso   1.000  C
  C58      1.0000 0.52438  0.55770  0.36180  Biso   1.000  C
  H37      1.0000 0.54990  0.52270  0.42340  Biso   1.000  H
  C59      1.0000 0.41470  0.58570  0.31310  Biso   1.000  C
  C60      1.0000 0.37470  0.63622  0.22170  Biso   1.000  C
  C61      1.0000 0.44326  0.66342  0.17380  Biso   1.000  C
  C62      1.0000 0.55683  0.63470  0.22428  Biso   1.000  C
  H38      1.0000 0.60560  0.65100  0.19460  Biso   1.000  H
  F5       1.0000 0.26275  0.65574  0.17430  Biso   1.000  F
  F6       1.0000 0.34150  0.55991  0.35413  Biso   1.000  F
  C63      1.0000 0.47400  0.72250  0.02770  Biso   1.000  C
  H39      1.0000 0.53610  0.76220  0.06930  Biso   1.000  H
  H40      1.0000 0.43420  0.75070  0.96000  Biso   1.000  H
  H41      1.0000 0.50130  0.66120  0.01980  Biso   1.000  H
  C64      1.0000 0.33760  0.80030  0.07500  Biso   1.000  C
  H42      1.0000 0.28260  0.78710  0.10140  Biso   1.000  H
  H43      1.0000 0.30090  0.82240  0.00410  Biso   1.000  H
  H44      1.0000 0.38820  0.84810  0.11750  Biso   1.000  H
  N11      1.0000 0.40093  0.71271  0.07814  Biso   1.000  N
  C65      1.0000 0.04041  0.73762  0.77103  Biso   1.000  C
  C66      1.0000 0.03696  0.71690  0.86496  Biso   1.000  C
  H45      1.0000 0.03420  0.65430  0.88430  Biso   1.000  H
  C67      1.0000 0.03760  0.79050  0.93072  Biso   1.000  C
  H46      1.0000 0.03600  0.77490  0.99430  Biso   1.000  H
  C68      1.0000 0.05014  0.90104  0.82039  Biso   1.000  C
  H47      1.0000 0.05760  0.96410  0.80520  Biso   1.000  H
  C69      1.0000 0.04996  0.83245  0.75002  Biso   1.000  C
  H48      1.0000 0.05620  0.84980  0.68890  Biso   1.000  H
  N12      1.0000 0.04019  0.88155  0.90880  Biso   1.000  N
  C70      1.0000 0.27950  0.44277  0.62918  Biso   1.000  C
  C71      1.0000 0.21598  0.39839  0.53365  Biso   1.000  C
  C72      1.0000 0.26002  0.32644  0.48793  Biso   1.000  C
  H49      1.0000 0.33360  0.30510  0.51430  Biso   1.000  H
  C73      1.0000 0.17429  0.29625  0.40002  Biso   1.000  C
  H50      1.0000 0.17750  0.25000  0.35430  Biso   1.000  H
  C74      1.0000 0.07653  0.34910  0.39002  Biso   1.000  C
  N13      1.0000 0.10349  0.41204  0.47265  Biso   1.000  N
  C75      1.0000 0.97043  0.33815  0.30855  Biso   1.000  C
  C76      1.0000 0.87653  0.39050  0.29689  Biso   1.000  C
  C77      1.0000 0.76800  0.38000  0.21059  Biso   1.000  C
  H51      1.0000 0.74940  0.33830  0.15460  Biso   1.000  H
  C78      1.0000 0.69815  0.44221  0.22638  Biso   1.000  C
  H52      1.0000 0.62290  0.45200  0.18310  Biso   1.000  H
  C79      1.0000 0.76413  0.49055  0.32436  Biso   1.000  C
  N14      1.0000 0.87324  0.45836  0.36657  Biso   1.000  N
  C80      1.0000 0.40273  0.41690  0.68340  Biso   1.000  C
  C81      1.0000 0.47562  0.44230  0.63820  Biso   1.000  C
  H53      1.0000 0.45010  0.47730  0.57660  Biso   1.000  H
  C82      1.0000 0.58530  0.41430  0.68690  Biso   1.000  C
  C83      1.0000 0.62530  0.36378  0.77830  Biso   1.000  C
  C84      1.0000 0.55674  0.33658  0.82620  Biso   1.000  C
  C85      1.0000 0.44317  0.36530  0.77572  Biso   1.000  C
  H54      1.0000 0.39440  0.34900  0.80540  Biso   1.000  H
  F7       1.0000 0.73725  0.34426  0.82570  Biso   1.000  F
  F8       1.0000 0.65850  0.44009  0.64587  Biso   1.000  F
  C86      1.0000 0.52600  0.27750  0.97230  Biso   1.000  C
  H55      1.0000 0.46390  0.23780  0.93070  Biso   1.000  H
  H56      1.0000 0.56580  0.24930  0.04000  Biso   1.000  H
  H57      1.0000 0.49870  0.33880  0.98020  Biso   1.000  H
  C87      1.0000 0.66240  0.19970  0.92500  Biso   1.000  C
  H58      1.0000 0.71740  0.21290  0.89860  Biso   1.000  H
  H59      1.0000 0.69910  0.17760  0.99590  Biso   1.000  H
  H60      1.0000 0.61180  0.15190  0.88250  Biso   1.000  H
  N15      1.0000 0.59907  0.28729  0.92186  Biso   1.000  N
  C88      1.0000 0.95959  0.26238  0.22897  Biso   1.000  C
  C89      1.0000 0.96304  0.28310  0.13504  Biso   1.000  C
  H61      1.0000 0.96580  0.34570  0.11570  Biso   1.000  H
  C90      1.0000 0.96240  0.20950  0.06928  Biso   1.000  C
  H62      1.0000 0.96400  0.22510  0.00570  Biso   1.000  H
  C91      1.0000 0.94986  0.09896  0.17961  Biso   1.000  C
  H63      1.0000 0.94240  0.03590  0.19480  Biso   1.000  H
  C92      1.0000 0.95004  0.16755  0.24998  Biso   1.000  C
  H64      1.0000 0.94380  0.15020  0.31110  Biso   1.000  H
  N16      1.0000 0.95981  0.11845  0.09120  Biso   1.000  N
  Ni2      1.0000 0.00000  0.50000  0.50000  Biso   1.000  Ni
