data_image0
_cell_length_a       11.0126
_cell_length_b       18.2302
_cell_length_c       20.1626
_cell_angle_alpha    99.776
_cell_angle_beta     90.561
_cell_angle_gamma    99.247

_symmetry_space_group_name_H-M    "P 1"
_symmetry_int_tables_number       1

loop_
  _symmetry_equiv_pos_as_xyz
  'x, y, z'

loop_
  _atom_site_label
  _atom_site_occupancy
  _atom_site_fract_x
  _atom_site_fract_y
  _atom_site_fract_z
  _atom_site_thermal_displace_type
  _atom_site_B_iso_or_equiv
  _atom_site_type_symbol
  Mn1      1.0000 0.70723  0.15402  0.60885  Biso   1.000  Mn
  Mn2      1.0000 0.13986  0.44200  0.83358  Biso   1.000  Mn
  N1       1.0000 0.71230  0.67680  0.89800  Biso   1.000  N
  N2       1.0000 0.00330  0.99060  0.71010  Biso   1.000  N
  N3       1.0000 0.63100  0.20380  0.06440  Biso   1.000  N
  N4       1.0000 0.28180  0.43250  0.76140  Biso   1.000  N
  N5       1.0000 0.50610  0.44300  0.76520  Biso   1.000  N
  N6       1.0000 0.39440  0.43990  0.76780  Biso   1.000  N
  O1       1.0000 0.66170  0.09053  0.49643  Biso   1.000  O
  O2       1.0000 0.69830  0.21410  0.51993  Biso   1.000  O
  O3       1.0000 0.11310  0.33380  0.86810  Biso   1.000  O
  O4       1.0000 0.98140  0.40350  0.91422  Biso   1.000  O
  O5       1.0000 0.41310  0.06720  0.57840  Biso   1.000  O
  O6       1.0000 0.52930  0.17270  0.63170  Biso   1.000  O
  O7       1.0000 0.06460  0.53870  0.83200  Biso   1.000  O
  O8       1.0000 0.00730  0.58760  0.93309  Biso   1.000  O
  O9       1.0000 0.59740  0.95870  0.57353  Biso   1.000  O
  O10      1.0000 0.69760  0.05390  0.64913  Biso   1.000  O
  O11      1.0000 0.27360  0.50780  0.90440  Biso   1.000  O
  O12      1.0000 0.19230  0.51090  0.00540  Biso   1.000  O
  C1       1.0000 0.67720  0.15460  0.47820  Biso   1.000  C
  C2       1.0000 0.67360  0.15930  0.40460  Biso   1.000  C
  C3       1.0000 0.66320  0.09720  0.35420  Biso   1.000  C
  H1       1.0000 0.66050  0.04950  0.36540  Biso   1.000  H
  C4       1.0000 0.67950  0.22990  0.38660  Biso   1.000  C
  H2       1.0000 0.68840  0.27230  0.42030  Biso   1.000  H
  C5       1.0000 0.67260  0.23870  0.32070  Biso   1.000  C
  H3       1.0000 0.67690  0.28680  0.31020  Biso   1.000  H
  C6       1.0000 0.65660  0.10480  0.28670  Biso   1.000  C
  H4       1.0000 0.65040  0.06230  0.25320  Biso   1.000  H
  C7       1.0000 0.65910  0.17580  0.26880  Biso   1.000  C
  C8       1.0000 0.64730  0.18560  0.19770  Biso   1.000  C
  C9       1.0000 0.67040  0.25670  0.17900  Biso   1.000  C
  H5       1.0000 0.69150  0.29930  0.21210  Biso   1.000  H
  C10      1.0000 0.66250  0.26480  0.11320  Biso   1.000  C
  H6       1.0000 0.67900  0.31260  0.10180  Biso   1.000  H
  C11      1.0000 0.60410  0.13470  0.08030  Biso   1.000  C
  H7       1.0000 0.58040  0.09320  0.04650  Biso   1.000  H
  C12      1.0000 0.61130  0.12470  0.14600  Biso   1.000  C
  H8       1.0000 0.59180  0.07640  0.15620  Biso   1.000  H
  C13      1.0000 0.63430  0.21400  0.99240  Biso   1.000  C
  H9       1.0000 0.61080  0.26220  0.98850  Biso   1.000  H
  H10      1.0000 0.57590  0.17450  0.96540  Biso   1.000  H
  C14      1.0000 0.76280  0.21120  0.96660  Biso   1.000  C
  C15      1.0000 0.83270  0.27530  0.94950  Biso   1.000  C
  H11      1.0000 0.80120  0.32030  0.95530  Biso   1.000  H
  C16      1.0000 0.81490  0.14560  0.96000  Biso   1.000  C
  H12      1.0000 0.76960  0.10220  0.97140  Biso   1.000  H
  C17      1.0000 0.93230  0.14360  0.93680  Biso   1.000  C
  H13      1.0000 0.96660  0.09990  0.93410  Biso   1.000  H
  C18      1.0000 0.99780  0.20710  0.91790  Biso   1.000  C
  H14      1.0000 0.07590  0.20570  0.90100  Biso   1.000  H
  C19      1.0000 0.94840  0.27330  0.92390  Biso   1.000  C
  C20      1.0000 0.01950  0.34130  0.90190  Biso   1.000  C
  C21      1.0000 0.43140  0.12690  0.62060  Biso   1.000  C
  C22      1.0000 0.32390  0.14600  0.66290  Biso   1.000  C
  C23      1.0000 0.21220  0.09780  0.65600  Biso   1.000  C
  H15      1.0000 0.20310  0.05280  0.62540  Biso   1.000  H
  C24      1.0000 0.33620  0.21230  0.70970  Biso   1.000  C
  H16      1.0000 0.41140  0.24470  0.71570  Biso   1.000  H
  C25      1.0000 0.23860  0.23050  0.74720  Biso   1.000  C
  H17      1.0000 0.24760  0.27540  0.77790  Biso   1.000  H
  C26      1.0000 0.11400  0.11570  0.69420  Biso   1.000  C
  C27      1.0000 0.12640  0.18200  0.73950  Biso   1.000  C
  H18      1.0000 0.06020  0.19440  0.76480  Biso   1.000  H
  C28      1.0000 0.99340  0.06240  0.68470  Biso   1.000  C
  H19      1.0000 0.93050  0.08650  0.70880  Biso   1.000  H
  H20      1.0000 0.96870  0.05070  0.63730  Biso   1.000  H
  C29      1.0000 0.96880  0.92350  0.67150  Biso   1.000  C
  H21      1.0000 0.94190  0.92090  0.62710  Biso   1.000  H
  C30      1.0000 0.04680  0.99510  0.77320  Biso   1.000  C
  H22      1.0000 0.07440  0.04230  0.79910  Biso   1.000  H
  C31      1.0000 0.05140  0.93190  0.80010  Biso   1.000  C
  H23      1.0000 0.07990  0.93670  0.84440  Biso   1.000  H
  C32      1.0000 0.01440  0.86090  0.76250  Biso   1.000  C
  C33      1.0000 0.97220  0.85820  0.69580  Biso   1.000  C
  H24      1.0000 0.94650  0.81180  0.66820  Biso   1.000  H
  C34      1.0000 0.01690  0.79140  0.79050  Biso   1.000  C
  C35      1.0000 0.02460  0.72340  0.74900  Biso   1.000  C
  H25      1.0000 0.02670  0.72090  0.70260  Biso   1.000  H
  C36      1.0000 0.02930  0.65940  0.77640  Biso   1.000  C
  H26      1.0000 0.03560  0.61430  0.74820  Biso   1.000  H
  C37      1.0000 0.02460  0.66150  0.84600  Biso   1.000  C
  C38      1.0000 0.01480  0.72850  0.88680  Biso   1.000  C
  H27      1.0000 0.00960  0.73040  0.93310  Biso   1.000  H
  C39      1.0000 0.01260  0.79290  0.86000  Biso   1.000  C
  H28      1.0000 0.00830  0.83810  0.88860  Biso   1.000  H
  C40      1.0000 0.03220  0.59000  0.87360  Biso   1.000  C
  C41      1.0000 0.65120  0.98610  0.62940  Biso   1.000  C
  C42      1.0000 0.66130  0.93250  0.67760  Biso   1.000  C
  C43      1.0000 0.69830  0.95890  0.74480  Biso   1.000  C
  H29      1.0000 0.71760  0.01060  0.76050  Biso   1.000  H
  C44      1.0000 0.63240  0.85450  0.65510  Biso   1.000  C
  H30      1.0000 0.60590  0.83600  0.61060  Biso   1.000  H
  C45      1.0000 0.64320  0.80480  0.69860  Biso   1.000  C
  H31      1.0000 0.62550  0.75320  0.68280  Biso   1.000  H
  C46      1.0000 0.70640  0.90890  0.78830  Biso   1.000  C
  H32      1.0000 0.72970  0.92720  0.83330  Biso   1.000  H
  C47      1.0000 0.68020  0.83100  0.76550  Biso   1.000  C
  C48      1.0000 0.69050  0.77720  0.81170  Biso   1.000  C
  C49      1.0000 0.68860  0.79890  0.88130  Biso   1.000  C
  H33      1.0000 0.67930  0.84790  0.89970  Biso   1.000  H
  C50      1.0000 0.70520  0.70260  0.78800  Biso   1.000  C
  H34      1.0000 0.70860  0.68580  0.74190  Biso   1.000  H
  C51      1.0000 0.71480  0.65430  0.83210  Biso   1.000  C
  H35      1.0000 0.72310  0.60470  0.81550  Biso   1.000  H
  C52      1.0000 0.70050  0.74790  0.92250  Biso   1.000  C
  H36      1.0000 0.70030  0.76320  0.96890  Biso   1.000  H
  C53      1.0000 0.72280  0.62430  0.94620  Biso   1.000  C
  H37      1.0000 0.79670  0.64250  0.97460  Biso   1.000  H
  H38      1.0000 0.72950  0.57480  0.92140  Biso   1.000  H
  C54      1.0000 0.61190  0.61840  0.98950  Biso   1.000  C
  C55      1.0000 0.61760  0.64910  0.05720  Biso   1.000  C
  H39      1.0000 0.69190  0.67600  0.07690  Biso   1.000  H
  C56      1.0000 0.49960  0.58020  0.96030  Biso   1.000  C
  H40      1.0000 0.49350  0.56030  0.91450  Biso   1.000  H
  C57      1.0000 0.51760  0.64110  0.09560  Biso   1.000  C
  H41      1.0000 0.52390  0.66230  0.14110  Biso   1.000  H
  C58      1.0000 0.40560  0.60130  0.06710  Biso   1.000  C
  H42      1.0000 0.33740  0.59490  0.09360  Biso   1.000  H
  C59      1.0000 0.39630  0.57140  0.99910  Biso   1.000  C
  C60      1.0000 0.27770  0.52630  0.96680  Biso   1.000  C
  Mn3      1.0000 0.29277  0.84598  0.39115  Biso   1.000  Mn
  Mn4      1.0000 0.86014  0.55800  0.16642  Biso   1.000  Mn
  N7       1.0000 0.28770  0.32320  0.10200  Biso   1.000  N
  N8       1.0000 0.99670  0.00940  0.28990  Biso   1.000  N
  N9       1.0000 0.36900  0.79620  0.93560  Biso   1.000  N
  N10      1.0000 0.71820  0.56750  0.23860  Biso   1.000  N
  N11      1.0000 0.49390  0.55700  0.23480  Biso   1.000  N
  N12      1.0000 0.60560  0.56010  0.23220  Biso   1.000  N
  O13      1.0000 0.33830  0.90947  0.50357  Biso   1.000  O
  O14      1.0000 0.30170  0.78590  0.48007  Biso   1.000  O
  O15      1.0000 0.88690  0.66620  0.13190  Biso   1.000  O
  O16      1.0000 0.01860  0.59650  0.08578  Biso   1.000  O
  O17      1.0000 0.58690  0.93280  0.42160  Biso   1.000  O
  O18      1.0000 0.47070  0.82730  0.36830  Biso   1.000  O
  O19      1.0000 0.93540  0.46130  0.16800  Biso   1.000  O
  O20      1.0000 0.99270  0.41240  0.06691  Biso   1.000  O
  O21      1.0000 0.40260  0.04130  0.42647  Biso   1.000  O
  O22      1.0000 0.30240  0.94610  0.35087  Biso   1.000  O
  O23      1.0000 0.72640  0.49220  0.09560  Biso   1.000  O
  O24      1.0000 0.80770  0.48910  0.99460  Biso   1.000  O
  C61      1.0000 0.32280  0.84540  0.52180  Biso   1.000  C
  C62      1.0000 0.32640  0.84070  0.59540  Biso   1.000  C
  C63      1.0000 0.33680  0.90280  0.64580  Biso   1.000  C
  H43      1.0000 0.33950  0.95050  0.63460  Biso   1.000  H
  C64      1.0000 0.32050  0.77010  0.61340  Biso   1.000  C
  H44      1.0000 0.31160  0.72770  0.57970  Biso   1.000  H
  C65      1.0000 0.32740  0.76130  0.67930  Biso   1.000  C
  H45      1.0000 0.32310  0.71320  0.68980  Biso   1.000  H
  C66      1.0000 0.34340  0.89520  0.71330  Biso   1.000  C
  H46      1.0000 0.34960  0.93770  0.74680  Biso   1.000  H
  C67      1.0000 0.34090  0.82420  0.73120  Biso   1.000  C
  C68      1.0000 0.35270  0.81440  0.80230  Biso   1.000  C
  C69      1.0000 0.32960  0.74330  0.82100  Biso   1.000  C
  H47      1.0000 0.30850  0.70070  0.78790  Biso   1.000  H
  C70      1.0000 0.33750  0.73520  0.88680  Biso   1.000  C
  H48      1.0000 0.32100  0.68740  0.89820  Biso   1.000  H
  C71      1.0000 0.39590  0.86530  0.91970  Biso   1.000  C
  H49      1.0000 0.41960  0.90680  0.95350  Biso   1.000  H
  C72      1.0000 0.38870  0.87530  0.85400  Biso   1.000  C
  H50      1.0000 0.40820  0.92360  0.84380  Biso   1.000  H
  C73      1.0000 0.36570  0.78600  0.00760  Biso   1.000  C
  H51      1.0000 0.38920  0.73780  0.01150  Biso   1.000  H
  H52      1.0000 0.42410  0.82550  0.03460  Biso   1.000  H
  C74      1.0000 0.23720  0.78880  0.03340  Biso   1.000  C
  C75      1.0000 0.16730  0.72470  0.05050  Biso   1.000  C
  H53      1.0000 0.19880  0.67970  0.04470  Biso   1.000  H
  C76      1.0000 0.18510  0.85440  0.04000  Biso   1.000  C
  H54      1.0000 0.23040  0.89780  0.02860  Biso   1.000  H
  C77      1.0000 0.06770  0.85640  0.06320  Biso   1.000  C
  H55      1.0000 0.03340  0.90010  0.06590  Biso   1.000  H
  C78      1.0000 0.00220  0.79290  0.08210  Biso   1.000  C
  H56      1.0000 0.92410  0.79430  0.09900  Biso   1.000  H
  C79      1.0000 0.05160  0.72670  0.07610  Biso   1.000  C
  C80      1.0000 0.98050  0.65870  0.09810  Biso   1.000  C
  C81      1.0000 0.56860  0.87310  0.37940  Biso   1.000  C
  C82      1.0000 0.67610  0.85400  0.33710  Biso   1.000  C
  C83      1.0000 0.78780  0.90220  0.34400  Biso   1.000  C
  H57      1.0000 0.79690  0.94720  0.37460  Biso   1.000  H
  C84      1.0000 0.66380  0.78770  0.29030  Biso   1.000  C
  H58      1.0000 0.58860  0.75530  0.28430  Biso   1.000  H
  C85      1.0000 0.76140  0.76950  0.25280  Biso   1.000  C
  H59      1.0000 0.75240  0.72460  0.22210  Biso   1.000  H
  C86      1.0000 0.88600  0.88430  0.30580  Biso   1.000  C
  C87      1.0000 0.87360  0.81800  0.26050  Biso   1.000  C
  H60      1.0000 0.93980  0.80560  0.23520  Biso   1.000  H
  C88      1.0000 0.00660  0.93760  0.31530  Biso   1.000  C
  H61      1.0000 0.06950  0.91350  0.29120  Biso   1.000  H
  H62      1.0000 0.03130  0.94930  0.36270  Biso   1.000  H
  C89      1.0000 0.03120  0.07650  0.32850  Biso   1.000  C
  H63      1.0000 0.05810  0.07910  0.37290  Biso   1.000  H
  C90      1.0000 0.95320  0.00490  0.22680  Biso   1.000  C
  H64      1.0000 0.92560  0.95770  0.20090  Biso   1.000  H
  C91      1.0000 0.94860  0.06810  0.19990  Biso   1.000  C
  H65      1.0000 0.92010  0.06330  0.15560  Biso   1.000  H
  C92      1.0000 0.98560  0.13910  0.23750  Biso   1.000  C
  C93      1.0000 0.02780  0.14180  0.30420  Biso   1.000  C
  H66      1.0000 0.05350  0.18820  0.33180  Biso   1.000  H
  C94      1.0000 0.98310  0.20860  0.20950  Biso   1.000  C
  C95      1.0000 0.97540  0.27660  0.25100  Biso   1.000  C
  H67      1.0000 0.97330  0.27910  0.29740  Biso   1.000  H
  C96      1.0000 0.97070  0.34060  0.22360  Biso   1.000  C
  H68      1.0000 0.96440  0.38570  0.25180  Biso   1.000  H
  C97      1.0000 0.97540  0.33850  0.15400  Biso   1.000  C
  C98      1.0000 0.98520  0.27150  0.11320  Biso   1.000  C
  H69      1.0000 0.99040  0.26960  0.06690  Biso   1.000  H
  C99      1.0000 0.98740  0.20710  0.14000  Biso   1.000  C
  H70      1.0000 0.99170  0.16190  0.11140  Biso   1.000  H
  C100     1.0000 0.96780  0.41000  0.12640  Biso   1.000  C
  C101     1.0000 0.34880  0.01390  0.37060  Biso   1.000  C
  C102     1.0000 0.33870  0.06750  0.32240  Biso   1.000  C
  C103     1.0000 0.30170  0.04110  0.25520  Biso   1.000  C
  H71      1.0000 0.28240  0.98940  0.23950  Biso   1.000  H
  C104     1.0000 0.36760  0.14550  0.34490  Biso   1.000  C
  H72      1.0000 0.39410  0.16400  0.38940  Biso   1.000  H
  C105     1.0000 0.35680  0.19520  0.30140  Biso   1.000  C
  H73      1.0000 0.37450  0.24680  0.31720  Biso   1.000  H
  C106     1.0000 0.29360  0.09110  0.21170  Biso   1.000  C
  H74      1.0000 0.27030  0.07280  0.16670  Biso   1.000  H
  C107     1.0000 0.31980  0.16900  0.23450  Biso   1.000  C
  C108     1.0000 0.30950  0.22280  0.18830  Biso   1.000  C
  C109     1.0000 0.31140  0.20110  0.11870  Biso   1.000  C
  H75      1.0000 0.32070  0.15210  0.10030  Biso   1.000  H
  C110     1.0000 0.29480  0.29740  0.21200  Biso   1.000  C
  H76      1.0000 0.29140  0.31420  0.25810  Biso   1.000  H
  C111     1.0000 0.28520  0.34570  0.16790  Biso   1.000  C
  H77      1.0000 0.27690  0.39530  0.18450  Biso   1.000  H
  C112     1.0000 0.29950  0.25210  0.07750  Biso   1.000  C
  H78      1.0000 0.29970  0.23680  0.03110  Biso   1.000  H
  C113     1.0000 0.27720  0.37570  0.05380  Biso   1.000  C
  H79      1.0000 0.20330  0.35750  0.02540  Biso   1.000  H
  H80      1.0000 0.27050  0.42520  0.07860  Biso   1.000  H
  C114     1.0000 0.38810  0.38160  0.01050  Biso   1.000  C
  C115     1.0000 0.38240  0.35090  0.94280  Biso   1.000  C
  H81      1.0000 0.30810  0.32400  0.92310  Biso   1.000  H
  C116     1.0000 0.50040  0.41980  0.03970  Biso   1.000  C
  H82      1.0000 0.50650  0.43970  0.08550  Biso   1.000  H
  C117     1.0000 0.48240  0.35890  0.90440  Biso   1.000  C
  H83      1.0000 0.47610  0.33770  0.85890  Biso   1.000  H
  C118     1.0000 0.59440  0.39870  0.93290  Biso   1.000  C
  H84      1.0000 0.66260  0.40510  0.90640  Biso   1.000  H
  C119     1.0000 0.60370  0.42860  0.00090  Biso   1.000  C
  C120     1.0000 0.72230  0.47370  0.03320  Biso   1.000  C
  Mn5      1.0000 0.00000  0.50000  0.00000  Biso   1.000  Mn
  Mn6      1.0000 0.50000  0.00000  0.50000  Biso   1.000  Mn
