data_image0
_cell_length_a       14.5543
_cell_length_b       13.7932
_cell_length_c       19.3189
_cell_angle_alpha    90
_cell_angle_beta     106.463
_cell_angle_gamma    90

_symmetry_space_group_name_H-M    "P 1"
_symmetry_int_tables_number       1

loop_
  _symmetry_equiv_pos_as_xyz
  'x, y, z'

loop_
  _atom_site_label
  _atom_site_occupancy
  _atom_site_fract_x
  _atom_site_fract_y
  _atom_site_fract_z
  _atom_site_thermal_displace_type
  _atom_site_B_iso_or_equiv
  _atom_site_type_symbol
  Cd1      1.0000 0.73605  0.98233  0.21900  Biso   1.000  Cd
  N1       1.0000 0.51079  0.01592  0.16299  Biso   1.000  N
  H1       1.0000 0.51010  0.96670  0.13550  Biso   1.000  H
  C1       1.0000 0.89624  0.16255  0.24787  Biso   1.000  C
  C2       1.0000 0.60670  0.80034  0.25950  Biso   1.000  C
  C3       1.0000 0.90350  0.25951  0.22689  Biso   1.000  C
  C4       1.0000 0.59717  0.69946  0.25021  Biso   1.000  C
  C5       1.0000 0.43160  0.05843  0.17172  Biso   1.000  C
  C6       1.0000 0.93021  0.83413  0.25816  Biso   1.000  C
  C7       1.0000 0.56231  0.13255  0.23752  Biso   1.000  C
  C8       1.0000 0.65131  0.67495  0.20481  Biso   1.000  C
  C9       1.0000 0.63063  0.20068  0.28536  Biso   1.000  C
  H2       1.0000 0.64660  0.25150  0.25680  Biso   1.000  H
  H3       1.0000 0.68780  0.16640  0.31040  Biso   1.000  H
  H4       1.0000 0.60170  0.22820  0.31970  Biso   1.000  H
  C10      1.0000 0.53733  0.63354  0.27985  Biso   1.000  C
  C11      1.0000 0.82043  0.27766  0.17200  Biso   1.000  C
  C12      1.0000 0.33283  0.02326  0.13351  Biso   1.000  C
  H5       1.0000 0.33040  0.95400  0.13770  Biso   1.000  H
  H6       1.0000 0.31730  0.04090  0.08340  Biso   1.000  H
  H7       1.0000 0.28750  0.05240  0.15490  Biso   1.000  H
  C13      1.0000 0.01231  0.89269  0.18691  Biso   1.000  C
  C14      1.0000 0.79028  0.36585  0.12814  Biso   1.000  C
  H8       1.0000 0.72260  0.37530  0.11960  Biso   1.000  H
  H9       1.0000 0.80450  0.35880  0.08280  Biso   1.000  H
  H10      1.0000 0.82410  0.42090  0.15350  Biso   1.000  H
  C15      1.0000 0.96927  0.10721  0.30346  Biso   1.000  C
  H11      1.0000 0.02650  0.10060  0.28850  Biso   1.000  H
  H12      1.0000 0.94460  0.04410  0.30910  Biso   1.000  H
  H13      1.0000 0.98380  0.14120  0.34860  Biso   1.000  H
  C16      1.0000 0.56246  0.86448  0.30405  Biso   1.000  C
  H14      1.0000 0.60700  0.91440  0.32620  Biso   1.000  H
  H15      1.0000 0.54680  0.82650  0.34080  Biso   1.000  H
  H16      1.0000 0.50530  0.89350  0.27360  Biso   1.000  H
  N2       1.0000 0.66289  0.83549  0.22158  Biso   1.000  N
  N3       1.0000 0.68895  0.75806  0.18881  Biso   1.000  N
  H17      1.0000 0.72550  0.76150  0.16090  Biso   1.000  H
  N4       1.0000 0.87316  0.90012  0.21569  Biso   1.000  N
  N5       1.0000 0.92608  0.93511  0.17307  Biso   1.000  N
  H18      1.0000 0.90630  0.97940  0.14100  Biso   1.000  H
  N6       1.0000 0.59175  0.06007  0.20277  Biso   1.000  N
  N7       1.0000 0.81415  0.12406  0.20848  Biso   1.000  N
  N8       1.0000 0.76889  0.19509  0.16319  Biso   1.000  N
  H19      1.0000 0.71360  0.18830  0.13230  Biso   1.000  H
  C17      1.0000 0.98274  0.32647  0.25846  Biso   1.000  C
  C18      1.0000 0.08336  0.91978  0.14822  Biso   1.000  C
  H20      1.0000 0.10080  0.98670  0.15750  Biso   1.000  H
  H21      1.0000 0.05580  0.91030  0.09730  Biso   1.000  H
  H22      1.0000 0.13940  0.87990  0.16490  Biso   1.000  H
  C19      1.0000 0.90009  0.77885  0.31372  Biso   1.000  C
  H23      1.0000 0.90470  0.71070  0.30530  Biso   1.000  H
  H24      1.0000 0.83510  0.79500  0.31120  Biso   1.000  H
  H25      1.0000 0.94100  0.79500  0.36070  Biso   1.000  H
  C20      1.0000 0.66973  0.57941  0.17605  Biso   1.000  C
  H26      1.0000 0.69260  0.58890  0.13460  Biso   1.000  H
  H27      1.0000 0.61140  0.54250  0.16250  Biso   1.000  H
  H28      1.0000 0.71710  0.54500  0.21250  Biso   1.000  H
  Cd2      1.0000 0.26395  0.48233  0.28100  Biso   1.000  Cd
  N9       1.0000 0.48921  0.51592  0.33701  Biso   1.000  N
  H29      1.0000 0.48990  0.46670  0.36450  Biso   1.000  H
  C21      1.0000 0.10376  0.66255  0.25213  Biso   1.000  C
  C22      1.0000 0.39330  0.30034  0.24050  Biso   1.000  C
  C23      1.0000 0.09650  0.75951  0.27311  Biso   1.000  C
  C24      1.0000 0.40283  0.19946  0.24979  Biso   1.000  C
  C25      1.0000 0.56840  0.55843  0.32828  Biso   1.000  C
  C26      1.0000 0.06979  0.33413  0.24184  Biso   1.000  C
  C27      1.0000 0.43769  0.63255  0.26248  Biso   1.000  C
  C28      1.0000 0.34869  0.17495  0.29519  Biso   1.000  C
  C29      1.0000 0.36937  0.70068  0.21464  Biso   1.000  C
  H30      1.0000 0.35340  0.75150  0.24320  Biso   1.000  H
  H31      1.0000 0.31220  0.66640  0.18960  Biso   1.000  H
  H32      1.0000 0.39830  0.72820  0.18030  Biso   1.000  H
  C30      1.0000 0.46267  0.13354  0.22015  Biso   1.000  C
  C31      1.0000 0.17957  0.77766  0.32800  Biso   1.000  C
  C32      1.0000 0.66717  0.52326  0.36649  Biso   1.000  C
  H33      1.0000 0.66960  0.45400  0.36230  Biso   1.000  H
  H34      1.0000 0.68270  0.54090  0.41660  Biso   1.000  H
  H35      1.0000 0.71250  0.55240  0.34510  Biso   1.000  H
  C33      1.0000 0.98769  0.39269  0.31309  Biso   1.000  C
  C34      1.0000 0.20972  0.86585  0.37186  Biso   1.000  C
  H36      1.0000 0.27740  0.87530  0.38040  Biso   1.000  H
  H37      1.0000 0.19550  0.85880  0.41720  Biso   1.000  H
  H38      1.0000 0.17590  0.92090  0.34650  Biso   1.000  H
  C35      1.0000 0.03073  0.60721  0.19654  Biso   1.000  C
  H39      1.0000 0.97350  0.60060  0.21150  Biso   1.000  H
  H40      1.0000 0.05540  0.54410  0.19090  Biso   1.000  H
  H41      1.0000 0.01620  0.64120  0.15140  Biso   1.000  H
  C36      1.0000 0.43754  0.36448  0.19595  Biso   1.000  C
  H42      1.0000 0.39300  0.41440  0.17380  Biso   1.000  H
  H43      1.0000 0.45320  0.32650  0.15920  Biso   1.000  H
  H44      1.0000 0.49470  0.39350  0.22640  Biso   1.000  H
  N10      1.0000 0.33711  0.33549  0.27842  Biso   1.000  N
  N11      1.0000 0.31105  0.25806  0.31119  Biso   1.000  N
  H45      1.0000 0.27450  0.26150  0.33910  Biso   1.000  H
  N12      1.0000 0.12684  0.40012  0.28431  Biso   1.000  N
  N13      1.0000 0.07392  0.43511  0.32693  Biso   1.000  N
  H46      1.0000 0.09370  0.47940  0.35900  Biso   1.000  H
  N14      1.0000 0.40825  0.56007  0.29723  Biso   1.000  N
  N15      1.0000 0.18585  0.62406  0.29152  Biso   1.000  N
  N16      1.0000 0.23111  0.69509  0.33681  Biso   1.000  N
  H47      1.0000 0.28640  0.68830  0.36770  Biso   1.000  H
  C37      1.0000 0.01726  0.82647  0.24154  Biso   1.000  C
  C38      1.0000 0.91664  0.41978  0.35178  Biso   1.000  C
  H48      1.0000 0.89920  0.48670  0.34250  Biso   1.000  H
  H49      1.0000 0.94420  0.41030  0.40270  Biso   1.000  H
  H50      1.0000 0.86060  0.37990  0.33510  Biso   1.000  H
  C39      1.0000 0.09991  0.27885  0.18628  Biso   1.000  C
  H51      1.0000 0.09530  0.21070  0.19470  Biso   1.000  H
  H52      1.0000 0.16490  0.29500  0.18880  Biso   1.000  H
  H53      1.0000 0.05900  0.29500  0.13930  Biso   1.000  H
  C40      1.0000 0.33027  0.07941  0.32395  Biso   1.000  C
  H54      1.0000 0.30740  0.08890  0.36540  Biso   1.000  H
  H55      1.0000 0.38860  0.04250  0.33750  Biso   1.000  H
  H56      1.0000 0.28290  0.04500  0.28750  Biso   1.000  H
  Cd3      1.0000 0.26395  0.01767  0.78100  Biso   1.000  Cd
  N17      1.0000 0.48921  0.98408  0.83701  Biso   1.000  N
  H57      1.0000 0.48990  0.03330  0.86450  Biso   1.000  H
  C41      1.0000 0.10376  0.83745  0.75213  Biso   1.000  C
  C42      1.0000 0.39330  0.19966  0.74050  Biso   1.000  C
  C43      1.0000 0.09650  0.74049  0.77311  Biso   1.000  C
  C44      1.0000 0.40283  0.30054  0.74979  Biso   1.000  C
  C45      1.0000 0.56840  0.94157  0.82828  Biso   1.000  C
  C46      1.0000 0.06979  0.16587  0.74184  Biso   1.000  C
  C47      1.0000 0.43769  0.86745  0.76248  Biso   1.000  C
  C48      1.0000 0.34869  0.32505  0.79519  Biso   1.000  C
  C49      1.0000 0.36937  0.79932  0.71464  Biso   1.000  C
  H58      1.0000 0.35340  0.74850  0.74320  Biso   1.000  H
  H59      1.0000 0.31220  0.83360  0.68960  Biso   1.000  H
  H60      1.0000 0.39830  0.77180  0.68030  Biso   1.000  H
  C50      1.0000 0.46267  0.36646  0.72015  Biso   1.000  C
  C51      1.0000 0.17957  0.72234  0.82800  Biso   1.000  C
  C52      1.0000 0.66717  0.97674  0.86649  Biso   1.000  C
  H61      1.0000 0.66960  0.04600  0.86230  Biso   1.000  H
  H62      1.0000 0.68270  0.95910  0.91660  Biso   1.000  H
  H63      1.0000 0.71250  0.94760  0.84510  Biso   1.000  H
  C53      1.0000 0.98769  0.10731  0.81309  Biso   1.000  C
  C54      1.0000 0.20972  0.63415  0.87186  Biso   1.000  C
  H64      1.0000 0.27740  0.62470  0.88040  Biso   1.000  H
  H65      1.0000 0.19550  0.64120  0.91720  Biso   1.000  H
  H66      1.0000 0.17590  0.57910  0.84650  Biso   1.000  H
  C55      1.0000 0.03073  0.89279  0.69654  Biso   1.000  C
  H67      1.0000 0.97350  0.89940  0.71150  Biso   1.000  H
  H68      1.0000 0.05540  0.95590  0.69090  Biso   1.000  H
  H69      1.0000 0.01620  0.85880  0.65140  Biso   1.000  H
  C56      1.0000 0.43754  0.13552  0.69595  Biso   1.000  C
  H70      1.0000 0.39300  0.08560  0.67380  Biso   1.000  H
  H71      1.0000 0.45320  0.17350  0.65920  Biso   1.000  H
  H72      1.0000 0.49470  0.10650  0.72640  Biso   1.000  H
  N18      1.0000 0.33711  0.16451  0.77842  Biso   1.000  N
  N19      1.0000 0.31105  0.24194  0.81119  Biso   1.000  N
  H73      1.0000 0.27450  0.23850  0.83910  Biso   1.000  H
  N20      1.0000 0.12684  0.09988  0.78431  Biso   1.000  N
  N21      1.0000 0.07392  0.06489  0.82693  Biso   1.000  N
  H74      1.0000 0.09370  0.02060  0.85900  Biso   1.000  H
  N22      1.0000 0.40825  0.93993  0.79723  Biso   1.000  N
  N23      1.0000 0.18585  0.87594  0.79152  Biso   1.000  N
  N24      1.0000 0.23111  0.80491  0.83681  Biso   1.000  N
  H75      1.0000 0.28640  0.81170  0.86770  Biso   1.000  H
  C57      1.0000 0.01726  0.67353  0.74154  Biso   1.000  C
  C58      1.0000 0.91664  0.08022  0.85178  Biso   1.000  C
  H76      1.0000 0.89920  0.01330  0.84250  Biso   1.000  H
  H77      1.0000 0.94420  0.08970  0.90270  Biso   1.000  H
  H78      1.0000 0.86060  0.12010  0.83510  Biso   1.000  H
  C59      1.0000 0.09991  0.22115  0.68628  Biso   1.000  C
  H79      1.0000 0.09530  0.28930  0.69470  Biso   1.000  H
  H80      1.0000 0.16490  0.20500  0.68880  Biso   1.000  H
  H81      1.0000 0.05900  0.20500  0.63930  Biso   1.000  H
  C60      1.0000 0.33027  0.42059  0.82395  Biso   1.000  C
  H82      1.0000 0.30740  0.41110  0.86540  Biso   1.000  H
  H83      1.0000 0.38860  0.45750  0.83750  Biso   1.000  H
  H84      1.0000 0.28290  0.45500  0.78750  Biso   1.000  H
  Cd4      1.0000 0.73605  0.51767  0.71900  Biso   1.000  Cd
  N25      1.0000 0.51079  0.48408  0.66299  Biso   1.000  N
  H85      1.0000 0.51010  0.53330  0.63550  Biso   1.000  H
  C61      1.0000 0.89624  0.33745  0.74787  Biso   1.000  C
  C62      1.0000 0.60670  0.69966  0.75950  Biso   1.000  C
  C63      1.0000 0.90350  0.24049  0.72689  Biso   1.000  C
  C64      1.0000 0.59717  0.80054  0.75021  Biso   1.000  C
  C65      1.0000 0.43160  0.44157  0.67172  Biso   1.000  C
  C66      1.0000 0.93021  0.66587  0.75816  Biso   1.000  C
  C67      1.0000 0.56231  0.36745  0.73752  Biso   1.000  C
  C68      1.0000 0.65131  0.82505  0.70481  Biso   1.000  C
  C69      1.0000 0.63063  0.29932  0.78536  Biso   1.000  C
  H86      1.0000 0.64660  0.24850  0.75680  Biso   1.000  H
  H87      1.0000 0.68780  0.33360  0.81040  Biso   1.000  H
  H88      1.0000 0.60170  0.27180  0.81970  Biso   1.000  H
  C70      1.0000 0.53733  0.86646  0.77985  Biso   1.000  C
  C71      1.0000 0.82043  0.22234  0.67200  Biso   1.000  C
  C72      1.0000 0.33283  0.47674  0.63351  Biso   1.000  C
  H89      1.0000 0.33040  0.54600  0.63770  Biso   1.000  H
  H90      1.0000 0.31730  0.45910  0.58340  Biso   1.000  H
  H91      1.0000 0.28750  0.44760  0.65490  Biso   1.000  H
  C73      1.0000 0.01231  0.60731  0.68691  Biso   1.000  C
  C74      1.0000 0.79028  0.13415  0.62814  Biso   1.000  C
  H92      1.0000 0.72260  0.12470  0.61960  Biso   1.000  H
  H93      1.0000 0.80450  0.14120  0.58280  Biso   1.000  H
  H94      1.0000 0.82410  0.07910  0.65350  Biso   1.000  H
  C75      1.0000 0.96927  0.39279  0.80346  Biso   1.000  C
  H95      1.0000 0.02650  0.39940  0.78850  Biso   1.000  H
  H96      1.0000 0.94460  0.45590  0.80910  Biso   1.000  H
  H97      1.0000 0.98380  0.35880  0.84860  Biso   1.000  H
  C76      1.0000 0.56246  0.63552  0.80405  Biso   1.000  C
  H98      1.0000 0.60700  0.58560  0.82620  Biso   1.000  H
  H99      1.0000 0.54680  0.67350  0.84080  Biso   1.000  H
  H100     1.0000 0.50530  0.60650  0.77360  Biso   1.000  H
  N26      1.0000 0.66289  0.66451  0.72158  Biso   1.000  N
  N27      1.0000 0.68895  0.74194  0.68881  Biso   1.000  N
  H101     1.0000 0.72550  0.73850  0.66090  Biso   1.000  H
  N28      1.0000 0.87316  0.59988  0.71569  Biso   1.000  N
  N29      1.0000 0.92608  0.56489  0.67307  Biso   1.000  N
  H102     1.0000 0.90630  0.52060  0.64100  Biso   1.000  H
  N30      1.0000 0.59175  0.43993  0.70277  Biso   1.000  N
  N31      1.0000 0.81415  0.37594  0.70848  Biso   1.000  N
  N32      1.0000 0.76889  0.30491  0.66319  Biso   1.000  N
  H103     1.0000 0.71360  0.31170  0.63230  Biso   1.000  H
  C77      1.0000 0.98274  0.17353  0.75846  Biso   1.000  C
  C78      1.0000 0.08336  0.58022  0.64822  Biso   1.000  C
  H104     1.0000 0.10080  0.51330  0.65750  Biso   1.000  H
  H105     1.0000 0.05580  0.58970  0.59730  Biso   1.000  H
  H106     1.0000 0.13940  0.62010  0.66490  Biso   1.000  H
  C79      1.0000 0.90009  0.72115  0.81372  Biso   1.000  C
  H107     1.0000 0.90470  0.78930  0.80530  Biso   1.000  H
  H108     1.0000 0.83510  0.70500  0.81120  Biso   1.000  H
  H109     1.0000 0.94100  0.70500  0.86070  Biso   1.000  H
  C80      1.0000 0.66973  0.92059  0.67605  Biso   1.000  C
  H110     1.0000 0.69260  0.91110  0.63460  Biso   1.000  H
  H111     1.0000 0.61140  0.95750  0.66250  Biso   1.000  H
  H112     1.0000 0.71710  0.95500  0.71250  Biso   1.000  H
