data_image0
_cell_length_a       21.8157
_cell_length_b       21.8157
_cell_length_c       10.1652
_cell_angle_alpha    90
_cell_angle_beta     90
_cell_angle_gamma    90

_symmetry_space_group_name_H-M    "P 1"
_symmetry_int_tables_number       1

loop_
  _symmetry_equiv_pos_as_xyz
  'x, y, z'

loop_
  _atom_site_label
  _atom_site_occupancy
  _atom_site_fract_x
  _atom_site_fract_y
  _atom_site_fract_z
  _atom_site_thermal_displace_type
  _atom_site_B_iso_or_equiv
  _atom_site_type_symbol
  Ni1      1.0000 0.85752  0.47695  0.06116  Biso   1.000  Ni
  O1       1.0000 0.84782  0.46642  0.26680  Biso   1.000  O
  O2       1.0000 0.91467  0.53106  0.18450  Biso   1.000  O
  O3       1.0000 0.83220  0.44230  0.75490  Biso   1.000  O
  O4       1.0000 0.88648  0.50423  0.88209  Biso   1.000  O
  N1       1.0000 0.79188  0.54797  0.06220  Biso   1.000  N
  N2       1.0000 0.65241  0.72721  0.97520  Biso   1.000  N
  N3       1.0000 0.60816  0.77285  0.99330  Biso   1.000  N
  N4       1.0000 0.42411  0.90803  0.93810  Biso   1.000  N
  C1       1.0000 0.74825  0.55096  0.15370  Biso   1.000  C
  H1       1.0000 0.74690  0.52050  0.21760  Biso   1.000  H
  C2       1.0000 0.70513  0.59684  0.15820  Biso   1.000  C
  H2       1.0000 0.67590  0.59720  0.22480  Biso   1.000  H
  C3       1.0000 0.70535  0.64185  0.06490  Biso   1.000  C
  C4       1.0000 0.75060  0.64012  0.97160  Biso   1.000  C
  H3       1.0000 0.75280  0.67030  0.90710  Biso   1.000  H
  C5       1.0000 0.79285  0.59315  0.97440  Biso   1.000  C
  H4       1.0000 0.82370  0.59300  0.91140  Biso   1.000  H
  C6       1.0000 0.65839  0.69023  0.06760  Biso   1.000  C
  H5       1.0000 0.63250  0.69330  0.14000  Biso   1.000  H
  C7       1.0000 0.56252  0.77098  0.91810  Biso   1.000  C
  H6       1.0000 0.55900  0.73960  0.85660  Biso   1.000  H
  C8       1.0000 0.51476  0.81808  0.92700  Biso   1.000  C
  C9       1.0000 0.52195  0.86998  0.00410  Biso   1.000  C
  H7       1.0000 0.55750  0.87570  0.05320  Biso   1.000  H
  C10      1.0000 0.47582  0.91301  0.00720  Biso   1.000  C
  H8       1.0000 0.48100  0.94740  0.06020  Biso   1.000  H
  C11      1.0000 0.41790  0.85821  0.86390  Biso   1.000  C
  H9       1.0000 0.38200  0.85360  0.81540  Biso   1.000  H
  C12      1.0000 0.46193  0.81302  0.85490  Biso   1.000  C
  H10      1.0000 0.45580  0.77930  0.80040  Biso   1.000  H
  C13      1.0000 0.88981  0.50604  0.28280  Biso   1.000  C
  C14      1.0000 0.90967  0.52357  0.41870  Biso   1.000  C
  C15      1.0000 0.88182  0.49682  0.52850  Biso   1.000  C
  H11      1.0000 0.85090  0.46800  0.51700  Biso   1.000  H
  C16      1.0000 0.90005  0.51307  0.65440  Biso   1.000  C
  C17      1.0000 0.94557  0.55650  0.66870  Biso   1.000  C
  H12      1.0000 0.95730  0.56830  0.75290  Biso   1.000  H
  C18      1.0000 0.97428  0.58298  0.56110  Biso   1.000  C
  H13      1.0000 0.00530  0.61170  0.57260  Biso   1.000  H
  C19      1.0000 0.95574  0.56568  0.43570  Biso   1.000  C
  H14      1.0000 0.97470  0.58280  0.36260  Biso   1.000  H
  C20      1.0000 0.87026  0.48380  0.77120  Biso   1.000  C
  Ni2      1.0000 0.35752  0.97695  0.93884  Biso   1.000  Ni
  O5       1.0000 0.34782  0.96642  0.73320  Biso   1.000  O
  O6       1.0000 0.41467  0.03106  0.81550  Biso   1.000  O
  O7       1.0000 0.33220  0.94230  0.24510  Biso   1.000  O
  O8       1.0000 0.38648  0.00423  0.11791  Biso   1.000  O
  N5       1.0000 0.29188  0.04797  0.93780  Biso   1.000  N
  N6       1.0000 0.15241  0.22721  0.02480  Biso   1.000  N
  N7       1.0000 0.10816  0.27285  0.00670  Biso   1.000  N
  N8       1.0000 0.92411  0.40803  0.06190  Biso   1.000  N
  C21      1.0000 0.24825  0.05096  0.84630  Biso   1.000  C
  H15      1.0000 0.24690  0.02050  0.78240  Biso   1.000  H
  C22      1.0000 0.20513  0.09684  0.84180  Biso   1.000  C
  H16      1.0000 0.17590  0.09720  0.77520  Biso   1.000  H
  C23      1.0000 0.20535  0.14185  0.93510  Biso   1.000  C
  C24      1.0000 0.25060  0.14012  0.02840  Biso   1.000  C
  H17      1.0000 0.25280  0.17030  0.09290  Biso   1.000  H
  C25      1.0000 0.29285  0.09315  0.02560  Biso   1.000  C
  H18      1.0000 0.32370  0.09300  0.08860  Biso   1.000  H
  C26      1.0000 0.15839  0.19023  0.93240  Biso   1.000  C
  H19      1.0000 0.13250  0.19330  0.86000  Biso   1.000  H
  C27      1.0000 0.06252  0.27098  0.08190  Biso   1.000  C
  H20      1.0000 0.05900  0.23960  0.14340  Biso   1.000  H
  C28      1.0000 0.01476  0.31808  0.07300  Biso   1.000  C
  C29      1.0000 0.02195  0.36998  0.99590  Biso   1.000  C
  H21      1.0000 0.05750  0.37570  0.94680  Biso   1.000  H
  C30      1.0000 0.97582  0.41301  0.99280  Biso   1.000  C
  H22      1.0000 0.98100  0.44740  0.93980  Biso   1.000  H
  C31      1.0000 0.91790  0.35821  0.13610  Biso   1.000  C
  H23      1.0000 0.88200  0.35360  0.18460  Biso   1.000  H
  C32      1.0000 0.96193  0.31302  0.14510  Biso   1.000  C
  H24      1.0000 0.95580  0.27930  0.19960  Biso   1.000  H
  C33      1.0000 0.38981  0.00604  0.71720  Biso   1.000  C
  C34      1.0000 0.40967  0.02357  0.58130  Biso   1.000  C
  C35      1.0000 0.38182  0.99682  0.47150  Biso   1.000  C
  H25      1.0000 0.35090  0.96800  0.48300  Biso   1.000  H
  C36      1.0000 0.40005  0.01307  0.34560  Biso   1.000  C
  C37      1.0000 0.44557  0.05650  0.33130  Biso   1.000  C
  H26      1.0000 0.45730  0.06830  0.24710  Biso   1.000  H
  C38      1.0000 0.47428  0.08298  0.43890  Biso   1.000  C
  H27      1.0000 0.50530  0.11170  0.42740  Biso   1.000  H
  C39      1.0000 0.45574  0.06568  0.56430  Biso   1.000  C
  H28      1.0000 0.47470  0.08280  0.63740  Biso   1.000  H
  C40      1.0000 0.37026  0.98380  0.22880  Biso   1.000  C
  Ni3      1.0000 0.64248  0.02305  0.06116  Biso   1.000  Ni
  O9       1.0000 0.65218  0.03358  0.26680  Biso   1.000  O
  O10      1.0000 0.58533  0.96894  0.18450  Biso   1.000  O
  O11      1.0000 0.66780  0.05770  0.75490  Biso   1.000  O
  O12      1.0000 0.61352  0.99577  0.88209  Biso   1.000  O
  N9       1.0000 0.70812  0.95203  0.06220  Biso   1.000  N
  N10      1.0000 0.84759  0.77279  0.97520  Biso   1.000  N
  N11      1.0000 0.89184  0.72715  0.99330  Biso   1.000  N
  N12      1.0000 0.07589  0.59197  0.93810  Biso   1.000  N
  C41      1.0000 0.75175  0.94904  0.15370  Biso   1.000  C
  H29      1.0000 0.75310  0.97950  0.21760  Biso   1.000  H
  C42      1.0000 0.79487  0.90316  0.15820  Biso   1.000  C
  H30      1.0000 0.82410  0.90280  0.22480  Biso   1.000  H
  C43      1.0000 0.79465  0.85815  0.06490  Biso   1.000  C
  C44      1.0000 0.74940  0.85988  0.97160  Biso   1.000  C
  H31      1.0000 0.74720  0.82970  0.90710  Biso   1.000  H
  C45      1.0000 0.70715  0.90685  0.97440  Biso   1.000  C
  H32      1.0000 0.67630  0.90700  0.91140  Biso   1.000  H
  C46      1.0000 0.84161  0.80977  0.06760  Biso   1.000  C
  H33      1.0000 0.86750  0.80670  0.14000  Biso   1.000  H
  C47      1.0000 0.93748  0.72902  0.91810  Biso   1.000  C
  H34      1.0000 0.94100  0.76040  0.85660  Biso   1.000  H
  C48      1.0000 0.98524  0.68192  0.92700  Biso   1.000  C
  C49      1.0000 0.97805  0.63002  0.00410  Biso   1.000  C
  H35      1.0000 0.94250  0.62430  0.05320  Biso   1.000  H
  C50      1.0000 0.02418  0.58699  0.00720  Biso   1.000  C
  H36      1.0000 0.01900  0.55260  0.06020  Biso   1.000  H
  C51      1.0000 0.08210  0.64179  0.86390  Biso   1.000  C
  H37      1.0000 0.11800  0.64640  0.81540  Biso   1.000  H
  C52      1.0000 0.03807  0.68698  0.85490  Biso   1.000  C
  H38      1.0000 0.04420  0.72070  0.80040  Biso   1.000  H
  C53      1.0000 0.61019  0.99396  0.28280  Biso   1.000  C
  C54      1.0000 0.59033  0.97643  0.41870  Biso   1.000  C
  C55      1.0000 0.61818  0.00318  0.52850  Biso   1.000  C
  H39      1.0000 0.64910  0.03200  0.51700  Biso   1.000  H
  C56      1.0000 0.59995  0.98693  0.65440  Biso   1.000  C
  C57      1.0000 0.55443  0.94350  0.66870  Biso   1.000  C
  H40      1.0000 0.54270  0.93170  0.75290  Biso   1.000  H
  C58      1.0000 0.52572  0.91702  0.56110  Biso   1.000  C
  H41      1.0000 0.49470  0.88830  0.57260  Biso   1.000  H
  C59      1.0000 0.54426  0.93432  0.43570  Biso   1.000  C
  H42      1.0000 0.52530  0.91720  0.36260  Biso   1.000  H
  C60      1.0000 0.62974  0.01620  0.77120  Biso   1.000  C
  Ni4      1.0000 0.14248  0.52305  0.93884  Biso   1.000  Ni
  O13      1.0000 0.15218  0.53358  0.73320  Biso   1.000  O
  O14      1.0000 0.08533  0.46894  0.81550  Biso   1.000  O
  O15      1.0000 0.16780  0.55770  0.24510  Biso   1.000  O
  O16      1.0000 0.11352  0.49577  0.11791  Biso   1.000  O
  N13      1.0000 0.20812  0.45203  0.93780  Biso   1.000  N
  N14      1.0000 0.34759  0.27279  0.02480  Biso   1.000  N
  N15      1.0000 0.39184  0.22715  0.00670  Biso   1.000  N
  N16      1.0000 0.57589  0.09197  0.06190  Biso   1.000  N
  C61      1.0000 0.25175  0.44904  0.84630  Biso   1.000  C
  H43      1.0000 0.25310  0.47950  0.78240  Biso   1.000  H
  C62      1.0000 0.29487  0.40316  0.84180  Biso   1.000  C
  H44      1.0000 0.32410  0.40280  0.77520  Biso   1.000  H
  C63      1.0000 0.29465  0.35815  0.93510  Biso   1.000  C
  C64      1.0000 0.24940  0.35988  0.02840  Biso   1.000  C
  H45      1.0000 0.24720  0.32970  0.09290  Biso   1.000  H
  C65      1.0000 0.20715  0.40685  0.02560  Biso   1.000  C
  H46      1.0000 0.17630  0.40700  0.08860  Biso   1.000  H
  C66      1.0000 0.34161  0.30977  0.93240  Biso   1.000  C
  H47      1.0000 0.36750  0.30670  0.86000  Biso   1.000  H
  C67      1.0000 0.43748  0.22902  0.08190  Biso   1.000  C
  H48      1.0000 0.44100  0.26040  0.14340  Biso   1.000  H
  C68      1.0000 0.48524  0.18192  0.07300  Biso   1.000  C
  C69      1.0000 0.47805  0.13002  0.99590  Biso   1.000  C
  H49      1.0000 0.44250  0.12430  0.94680  Biso   1.000  H
  C70      1.0000 0.52418  0.08699  0.99280  Biso   1.000  C
  H50      1.0000 0.51900  0.05260  0.93980  Biso   1.000  H
  C71      1.0000 0.58210  0.14179  0.13610  Biso   1.000  C
  H51      1.0000 0.61800  0.14640  0.18460  Biso   1.000  H
  C72      1.0000 0.53807  0.18698  0.14510  Biso   1.000  C
  H52      1.0000 0.54420  0.22070  0.19960  Biso   1.000  H
  C73      1.0000 0.11019  0.49396  0.71720  Biso   1.000  C
  C74      1.0000 0.09033  0.47643  0.58130  Biso   1.000  C
  C75      1.0000 0.11818  0.50318  0.47150  Biso   1.000  C
  H53      1.0000 0.14910  0.53200  0.48300  Biso   1.000  H
  C76      1.0000 0.09995  0.48693  0.34560  Biso   1.000  C
  C77      1.0000 0.05443  0.44350  0.33130  Biso   1.000  C
  H54      1.0000 0.04270  0.43170  0.24710  Biso   1.000  H
  C78      1.0000 0.02572  0.41702  0.43890  Biso   1.000  C
  H55      1.0000 0.99470  0.38830  0.42740  Biso   1.000  H
  C79      1.0000 0.04426  0.43432  0.56430  Biso   1.000  C
  H56      1.0000 0.02530  0.41720  0.63740  Biso   1.000  H
  C80      1.0000 0.12974  0.51620  0.22880  Biso   1.000  C
  Ni5      1.0000 0.52305  0.35752  0.56116  Biso   1.000  Ni
  O17      1.0000 0.53358  0.34782  0.76680  Biso   1.000  O
  O18      1.0000 0.46894  0.41467  0.68450  Biso   1.000  O
  O19      1.0000 0.55770  0.33220  0.25490  Biso   1.000  O
  O20      1.0000 0.49577  0.38648  0.38209  Biso   1.000  O
  N17      1.0000 0.45203  0.29188  0.56220  Biso   1.000  N
  N18      1.0000 0.27279  0.15241  0.47520  Biso   1.000  N
  N19      1.0000 0.22715  0.10816  0.49330  Biso   1.000  N
  N20      1.0000 0.09197  0.92411  0.43810  Biso   1.000  N
  C81      1.0000 0.44904  0.24825  0.65370  Biso   1.000  C
  H57      1.0000 0.47950  0.24690  0.71760  Biso   1.000  H
  C82      1.0000 0.40316  0.20513  0.65820  Biso   1.000  C
  H58      1.0000 0.40280  0.17590  0.72480  Biso   1.000  H
  C83      1.0000 0.35815  0.20535  0.56490  Biso   1.000  C
  C84      1.0000 0.35988  0.25060  0.47160  Biso   1.000  C
  H59      1.0000 0.32970  0.25280  0.40710  Biso   1.000  H
  C85      1.0000 0.40685  0.29285  0.47440  Biso   1.000  C
  H60      1.0000 0.40700  0.32370  0.41140  Biso   1.000  H
  C86      1.0000 0.30977  0.15839  0.56760  Biso   1.000  C
  H61      1.0000 0.30670  0.13250  0.64000  Biso   1.000  H
  C87      1.0000 0.22902  0.06252  0.41810  Biso   1.000  C
  H62      1.0000 0.26040  0.05900  0.35660  Biso   1.000  H
  C88      1.0000 0.18192  0.01476  0.42700  Biso   1.000  C
  C89      1.0000 0.13002  0.02195  0.50410  Biso   1.000  C
  H63      1.0000 0.12430  0.05750  0.55320  Biso   1.000  H
  C90      1.0000 0.08699  0.97582  0.50720  Biso   1.000  C
  H64      1.0000 0.05260  0.98100  0.56020  Biso   1.000  H
  C91      1.0000 0.14179  0.91790  0.36390  Biso   1.000  C
  H65      1.0000 0.14640  0.88200  0.31540  Biso   1.000  H
  C92      1.0000 0.18698  0.96193  0.35490  Biso   1.000  C
  H66      1.0000 0.22070  0.95580  0.30040  Biso   1.000  H
  C93      1.0000 0.49396  0.38981  0.78280  Biso   1.000  C
  C94      1.0000 0.47643  0.40967  0.91870  Biso   1.000  C
  C95      1.0000 0.50318  0.38182  0.02850  Biso   1.000  C
  H67      1.0000 0.53200  0.35090  0.01700  Biso   1.000  H
  C96      1.0000 0.48693  0.40005  0.15440  Biso   1.000  C
  C97      1.0000 0.44350  0.44557  0.16870  Biso   1.000  C
  H68      1.0000 0.43170  0.45730  0.25290  Biso   1.000  H
  C98      1.0000 0.41702  0.47428  0.06110  Biso   1.000  C
  H69      1.0000 0.38830  0.50530  0.07260  Biso   1.000  H
  C99      1.0000 0.43432  0.45574  0.93570  Biso   1.000  C
  H70      1.0000 0.41720  0.47470  0.86260  Biso   1.000  H
  C100     1.0000 0.51620  0.37026  0.27120  Biso   1.000  C
  Ni6      1.0000 0.02305  0.85752  0.43884  Biso   1.000  Ni
  O21      1.0000 0.03358  0.84782  0.23320  Biso   1.000  O
  O22      1.0000 0.96894  0.91467  0.31550  Biso   1.000  O
  O23      1.0000 0.05770  0.83220  0.74510  Biso   1.000  O
  O24      1.0000 0.99577  0.88648  0.61791  Biso   1.000  O
  N21      1.0000 0.95203  0.79188  0.43780  Biso   1.000  N
  N22      1.0000 0.77279  0.65241  0.52480  Biso   1.000  N
  N23      1.0000 0.72715  0.60816  0.50670  Biso   1.000  N
  N24      1.0000 0.59197  0.42411  0.56190  Biso   1.000  N
  C101     1.0000 0.94904  0.74825  0.34630  Biso   1.000  C
  H71      1.0000 0.97950  0.74690  0.28240  Biso   1.000  H
  C102     1.0000 0.90316  0.70513  0.34180  Biso   1.000  C
  H72      1.0000 0.90280  0.67590  0.27520  Biso   1.000  H
  C103     1.0000 0.85815  0.70535  0.43510  Biso   1.000  C
  C104     1.0000 0.85988  0.75060  0.52840  Biso   1.000  C
  H73      1.0000 0.82970  0.75280  0.59290  Biso   1.000  H
  C105     1.0000 0.90685  0.79285  0.52560  Biso   1.000  C
  H74      1.0000 0.90700  0.82370  0.58860  Biso   1.000  H
  C106     1.0000 0.80977  0.65839  0.43240  Biso   1.000  C
  H75      1.0000 0.80670  0.63250  0.36000  Biso   1.000  H
  C107     1.0000 0.72902  0.56252  0.58190  Biso   1.000  C
  H76      1.0000 0.76040  0.55900  0.64340  Biso   1.000  H
  C108     1.0000 0.68192  0.51476  0.57300  Biso   1.000  C
  C109     1.0000 0.63002  0.52195  0.49590  Biso   1.000  C
  H77      1.0000 0.62430  0.55750  0.44680  Biso   1.000  H
  C110     1.0000 0.58699  0.47582  0.49280  Biso   1.000  C
  H78      1.0000 0.55260  0.48100  0.43980  Biso   1.000  H
  C111     1.0000 0.64179  0.41790  0.63610  Biso   1.000  C
  H79      1.0000 0.64640  0.38200  0.68460  Biso   1.000  H
  C112     1.0000 0.68698  0.46193  0.64510  Biso   1.000  C
  H80      1.0000 0.72070  0.45580  0.69960  Biso   1.000  H
  C113     1.0000 0.99396  0.88981  0.21720  Biso   1.000  C
  C114     1.0000 0.97643  0.90967  0.08130  Biso   1.000  C
  C115     1.0000 0.00318  0.88182  0.97150  Biso   1.000  C
  H81      1.0000 0.03200  0.85090  0.98300  Biso   1.000  H
  C116     1.0000 0.98693  0.90005  0.84560  Biso   1.000  C
  C117     1.0000 0.94350  0.94557  0.83130  Biso   1.000  C
  H82      1.0000 0.93170  0.95730  0.74710  Biso   1.000  H
  C118     1.0000 0.91702  0.97428  0.93890  Biso   1.000  C
  H83      1.0000 0.88830  0.00530  0.92740  Biso   1.000  H
  C119     1.0000 0.93432  0.95574  0.06430  Biso   1.000  C
  H84      1.0000 0.91720  0.97470  0.13740  Biso   1.000  H
  C120     1.0000 0.01620  0.87026  0.72880  Biso   1.000  C
  Ni7      1.0000 0.97695  0.14248  0.56116  Biso   1.000  Ni
  O25      1.0000 0.96642  0.15218  0.76680  Biso   1.000  O
  O26      1.0000 0.03106  0.08533  0.68450  Biso   1.000  O
  O27      1.0000 0.94230  0.16780  0.25490  Biso   1.000  O
  O28      1.0000 0.00423  0.11352  0.38209  Biso   1.000  O
  N25      1.0000 0.04797  0.20812  0.56220  Biso   1.000  N
  N26      1.0000 0.22721  0.34759  0.47520  Biso   1.000  N
  N27      1.0000 0.27285  0.39184  0.49330  Biso   1.000  N
  N28      1.0000 0.40803  0.57589  0.43810  Biso   1.000  N
  C121     1.0000 0.05096  0.25175  0.65370  Biso   1.000  C
  H85      1.0000 0.02050  0.25310  0.71760  Biso   1.000  H
  C122     1.0000 0.09684  0.29487  0.65820  Biso   1.000  C
  H86      1.0000 0.09720  0.32410  0.72480  Biso   1.000  H
  C123     1.0000 0.14185  0.29465  0.56490  Biso   1.000  C
  C124     1.0000 0.14012  0.24940  0.47160  Biso   1.000  C
  H87      1.0000 0.17030  0.24720  0.40710  Biso   1.000  H
  C125     1.0000 0.09315  0.20715  0.47440  Biso   1.000  C
  H88      1.0000 0.09300  0.17630  0.41140  Biso   1.000  H
  C126     1.0000 0.19023  0.34161  0.56760  Biso   1.000  C
  H89      1.0000 0.19330  0.36750  0.64000  Biso   1.000  H
  C127     1.0000 0.27098  0.43748  0.41810  Biso   1.000  C
  H90      1.0000 0.23960  0.44100  0.35660  Biso   1.000  H
  C128     1.0000 0.31808  0.48524  0.42700  Biso   1.000  C
  C129     1.0000 0.36998  0.47805  0.50410  Biso   1.000  C
  H91      1.0000 0.37570  0.44250  0.55320  Biso   1.000  H
  C130     1.0000 0.41301  0.52418  0.50720  Biso   1.000  C
  H92      1.0000 0.44740  0.51900  0.56020  Biso   1.000  H
  C131     1.0000 0.35821  0.58210  0.36390  Biso   1.000  C
  H93      1.0000 0.35360  0.61800  0.31540  Biso   1.000  H
  C132     1.0000 0.31302  0.53807  0.35490  Biso   1.000  C
  H94      1.0000 0.27930  0.54420  0.30040  Biso   1.000  H
  C133     1.0000 0.00604  0.11019  0.78280  Biso   1.000  C
  C134     1.0000 0.02357  0.09033  0.91870  Biso   1.000  C
  C135     1.0000 0.99682  0.11818  0.02850  Biso   1.000  C
  H95      1.0000 0.96800  0.14910  0.01700  Biso   1.000  H
  C136     1.0000 0.01307  0.09995  0.15440  Biso   1.000  C
  C137     1.0000 0.05650  0.05443  0.16870  Biso   1.000  C
  H96      1.0000 0.06830  0.04270  0.25290  Biso   1.000  H
  C138     1.0000 0.08298  0.02572  0.06110  Biso   1.000  C
  H97      1.0000 0.11170  0.99470  0.07260  Biso   1.000  H
  C139     1.0000 0.06568  0.04426  0.93570  Biso   1.000  C
  H98      1.0000 0.08280  0.02530  0.86260  Biso   1.000  H
  C140     1.0000 0.98380  0.12974  0.27120  Biso   1.000  C
  Ni8      1.0000 0.47695  0.64248  0.43884  Biso   1.000  Ni
  O29      1.0000 0.46642  0.65218  0.23320  Biso   1.000  O
  O30      1.0000 0.53106  0.58533  0.31550  Biso   1.000  O
  O31      1.0000 0.44230  0.66780  0.74510  Biso   1.000  O
  O32      1.0000 0.50423  0.61352  0.61791  Biso   1.000  O
  N29      1.0000 0.54797  0.70812  0.43780  Biso   1.000  N
  N30      1.0000 0.72721  0.84759  0.52480  Biso   1.000  N
  N31      1.0000 0.77285  0.89184  0.50670  Biso   1.000  N
  N32      1.0000 0.90803  0.07589  0.56190  Biso   1.000  N
  C141     1.0000 0.55096  0.75175  0.34630  Biso   1.000  C
  H99      1.0000 0.52050  0.75310  0.28240  Biso   1.000  H
  C142     1.0000 0.59684  0.79487  0.34180  Biso   1.000  C
  H100     1.0000 0.59720  0.82410  0.27520  Biso   1.000  H
  C143     1.0000 0.64185  0.79465  0.43510  Biso   1.000  C
  C144     1.0000 0.64012  0.74940  0.52840  Biso   1.000  C
  H101     1.0000 0.67030  0.74720  0.59290  Biso   1.000  H
  C145     1.0000 0.59315  0.70715  0.52560  Biso   1.000  C
  H102     1.0000 0.59300  0.67630  0.58860  Biso   1.000  H
  C146     1.0000 0.69023  0.84161  0.43240  Biso   1.000  C
  H103     1.0000 0.69330  0.86750  0.36000  Biso   1.000  H
  C147     1.0000 0.77098  0.93748  0.58190  Biso   1.000  C
  H104     1.0000 0.73960  0.94100  0.64340  Biso   1.000  H
  C148     1.0000 0.81808  0.98524  0.57300  Biso   1.000  C
  C149     1.0000 0.86998  0.97805  0.49590  Biso   1.000  C
  H105     1.0000 0.87570  0.94250  0.44680  Biso   1.000  H
  C150     1.0000 0.91301  0.02418  0.49280  Biso   1.000  C
  H106     1.0000 0.94740  0.01900  0.43980  Biso   1.000  H
  C151     1.0000 0.85821  0.08210  0.63610  Biso   1.000  C
  H107     1.0000 0.85360  0.11800  0.68460  Biso   1.000  H
  C152     1.0000 0.81302  0.03807  0.64510  Biso   1.000  C
  H108     1.0000 0.77930  0.04420  0.69960  Biso   1.000  H
  C153     1.0000 0.50604  0.61019  0.21720  Biso   1.000  C
  C154     1.0000 0.52357  0.59033  0.08130  Biso   1.000  C
  C155     1.0000 0.49682  0.61818  0.97150  Biso   1.000  C
  H109     1.0000 0.46800  0.64910  0.98300  Biso   1.000  H
  C156     1.0000 0.51307  0.59995  0.84560  Biso   1.000  C
  C157     1.0000 0.55650  0.55443  0.83130  Biso   1.000  C
  H110     1.0000 0.56830  0.54270  0.74710  Biso   1.000  H
  C158     1.0000 0.58298  0.52572  0.93890  Biso   1.000  C
  H111     1.0000 0.61170  0.49470  0.92740  Biso   1.000  H
  C159     1.0000 0.56568  0.54426  0.06430  Biso   1.000  C
  H112     1.0000 0.58280  0.52530  0.13740  Biso   1.000  H
  C160     1.0000 0.48380  0.62974  0.72880  Biso   1.000  C
