data_image0
_cell_length_a       14.0541
_cell_length_b       12.9861
_cell_length_c       18.1985
_cell_angle_alpha    90
_cell_angle_beta     110.134
_cell_angle_gamma    90

_symmetry_space_group_name_H-M    "P 1"
_symmetry_int_tables_number       1

loop_
  _symmetry_equiv_pos_as_xyz
  'x, y, z'

loop_
  _atom_site_label
  _atom_site_occupancy
  _atom_site_fract_x
  _atom_site_fract_y
  _atom_site_fract_z
  _atom_site_thermal_displace_type
  _atom_site_B_iso_or_equiv
  _atom_site_type_symbol
  C1       1.0000 0.25920  0.28330  0.46990  Biso   1.000  C
  C2       1.0000 0.18720  0.29590  0.51350  Biso   1.000  C
  C3       1.0000 0.09240  0.24980  0.48860  Biso   1.000  C
  C4       1.0000 0.02610  0.26700  0.52940  Biso   1.000  C
  C5       1.0000 0.05420  0.32910  0.59580  Biso   1.000  C
  C6       1.0000 0.15000  0.37440  0.62130  Biso   1.000  C
  C7       1.0000 0.21470  0.35710  0.57990  Biso   1.000  C
  C8       1.0000 0.98230  0.33870  0.64370  Biso   1.000  C
  C9       1.0000 0.01240  0.25370  0.70680  Biso   1.000  C
  C10      1.0000 0.99120  0.44500  0.68390  Biso   1.000  C
  C11      1.0000 0.86970  0.32820  0.58870  Biso   1.000  C
  C12      1.0000 0.83350  0.39620  0.52630  Biso   1.000  C
  C13      1.0000 0.73270  0.39290  0.47750  Biso   1.000  C
  C14      1.0000 0.66740  0.31790  0.48860  Biso   1.000  C
  C15      1.0000 0.70400  0.24880  0.54830  Biso   1.000  C
  C16      1.0000 0.80370  0.25320  0.60010  Biso   1.000  C
  C17      1.0000 0.55800  0.31740  0.43390  Biso   1.000  C
  C18      1.0000 0.30830  0.36620  0.22380  Biso   1.000  C
  C19      1.0000 0.31320  0.46530  0.20230  Biso   1.000  C
  C20      1.0000 0.31280  0.46040  0.32360  Biso   1.000  C
  C21      1.0000 0.32830  0.63460  0.27240  Biso   1.000  C
  C22      1.0000 0.25620  0.69640  0.21790  Biso   1.000  C
  C23      1.0000 0.26830  0.80290  0.22140  Biso   1.000  C
  C24      1.0000 0.35190  0.84340  0.27990  Biso   1.000  C
  C25      1.0000 0.42570  0.78420  0.33400  Biso   1.000  C
  C26      1.0000 0.41340  0.67470  0.33090  Biso   1.000  C
  C27      1.0000 0.32970  0.02190  0.32450  Biso   1.000  C
  C28      1.0000 0.42160  0.00840  0.24810  Biso   1.000  C
  C29      1.0000 0.41760  0.10810  0.26740  Biso   1.000  C
  F1       1.0000 0.11150  0.26060  0.74890  Biso   1.000  F
  F2       1.0000 0.99780  0.16050  0.67490  Biso   1.000  F
  F3       1.0000 0.96280  0.26000  0.75670  Biso   1.000  F
  F4       1.0000 0.99100  0.52160  0.63690  Biso   1.000  F
  F5       1.0000 0.07520  0.45470  0.74760  Biso   1.000  F
  F6       1.0000 0.91460  0.46190  0.70980  Biso   1.000  F
  N1       1.0000 0.30760  0.36350  0.29980  Biso   1.000  N
  N2       1.0000 0.31590  0.52490  0.26680  Biso   1.000  N
  N3       1.0000 0.48470  0.61470  0.38500  Biso   1.000  N
  N4       1.0000 0.51210  0.82410  0.38930  Biso   1.000  N
  N5       1.0000 0.36550  0.95450  0.28350  Biso   1.000  N
  N6       1.0000 0.35940  0.11670  0.31590  Biso   1.000  N
  O1       1.0000 0.24790  0.20830  0.42410  Biso   1.000  O
  O2       1.0000 0.32790  0.34690  0.47860  Biso   1.000  O
  O3       1.0000 0.50230  0.24310  0.44140  Biso   1.000  O
  O4       1.0000 0.52800  0.38740  0.38630  Biso   1.000  O
  Zn1      1.0000 0.35517  0.24742  0.37617  Biso   1.000  Zn
  C30      1.0000 0.74080  0.78330  0.03010  Biso   1.000  C
  C31      1.0000 0.81280  0.79590  0.98650  Biso   1.000  C
  C32      1.0000 0.90760  0.74980  0.01140  Biso   1.000  C
  C33      1.0000 0.97390  0.76700  0.97060  Biso   1.000  C
  C34      1.0000 0.94580  0.82910  0.90420  Biso   1.000  C
  C35      1.0000 0.85000  0.87440  0.87870  Biso   1.000  C
  C36      1.0000 0.78530  0.85710  0.92010  Biso   1.000  C
  C37      1.0000 0.01770  0.83870  0.85630  Biso   1.000  C
  C38      1.0000 0.98760  0.75370  0.79320  Biso   1.000  C
  C39      1.0000 0.00880  0.94500  0.81610  Biso   1.000  C
  C40      1.0000 0.13030  0.82820  0.91130  Biso   1.000  C
  C41      1.0000 0.16650  0.89620  0.97370  Biso   1.000  C
  C42      1.0000 0.26730  0.89290  0.02250  Biso   1.000  C
  C43      1.0000 0.33260  0.81790  0.01140  Biso   1.000  C
  C44      1.0000 0.29600  0.74880  0.95170  Biso   1.000  C
  C45      1.0000 0.19630  0.75320  0.89990  Biso   1.000  C
  C46      1.0000 0.44200  0.81740  0.06610  Biso   1.000  C
  C47      1.0000 0.69170  0.86620  0.27620  Biso   1.000  C
  C48      1.0000 0.68680  0.96530  0.29770  Biso   1.000  C
  C49      1.0000 0.68720  0.96040  0.17640  Biso   1.000  C
  C50      1.0000 0.67170  0.13460  0.22760  Biso   1.000  C
  C51      1.0000 0.74380  0.19640  0.28210  Biso   1.000  C
  C52      1.0000 0.73170  0.30290  0.27860  Biso   1.000  C
  C53      1.0000 0.64810  0.34340  0.22010  Biso   1.000  C
  C54      1.0000 0.57430  0.28420  0.16600  Biso   1.000  C
  C55      1.0000 0.58660  0.17470  0.16910  Biso   1.000  C
  C56      1.0000 0.67030  0.52190  0.17550  Biso   1.000  C
  C57      1.0000 0.57840  0.50840  0.25190  Biso   1.000  C
  C58      1.0000 0.58240  0.60810  0.23260  Biso   1.000  C
  F7       1.0000 0.88850  0.76060  0.75110  Biso   1.000  F
  F8       1.0000 0.00220  0.66050  0.82510  Biso   1.000  F
  F9       1.0000 0.03720  0.76000  0.74330  Biso   1.000  F
  F10      1.0000 0.00900  0.02160  0.86310  Biso   1.000  F
  F11      1.0000 0.92480  0.95470  0.75240  Biso   1.000  F
  F12      1.0000 0.08540  0.96190  0.79020  Biso   1.000  F
  N7       1.0000 0.69240  0.86350  0.20020  Biso   1.000  N
  N8       1.0000 0.68410  0.02490  0.23320  Biso   1.000  N
  N9       1.0000 0.51530  0.11470  0.11500  Biso   1.000  N
  N10      1.0000 0.48790  0.32410  0.11070  Biso   1.000  N
  N11      1.0000 0.63450  0.45450  0.21650  Biso   1.000  N
  N12      1.0000 0.64060  0.61670  0.18410  Biso   1.000  N
  O5       1.0000 0.75210  0.70830  0.07590  Biso   1.000  O
  O6       1.0000 0.67210  0.84690  0.02140  Biso   1.000  O
  O7       1.0000 0.49770  0.74310  0.05860  Biso   1.000  O
  O8       1.0000 0.47200  0.88740  0.11370  Biso   1.000  O
  Zn2      1.0000 0.64483  0.74742  0.12383  Biso   1.000  Zn
  C59      1.0000 0.74080  0.71670  0.53010  Biso   1.000  C
  C60      1.0000 0.81280  0.70410  0.48650  Biso   1.000  C
  C61      1.0000 0.90760  0.75020  0.51140  Biso   1.000  C
  C62      1.0000 0.97390  0.73300  0.47060  Biso   1.000  C
  C63      1.0000 0.94580  0.67090  0.40420  Biso   1.000  C
  C64      1.0000 0.85000  0.62560  0.37870  Biso   1.000  C
  C65      1.0000 0.78530  0.64290  0.42010  Biso   1.000  C
  C66      1.0000 0.01770  0.66130  0.35630  Biso   1.000  C
  C67      1.0000 0.98760  0.74630  0.29320  Biso   1.000  C
  C68      1.0000 0.00880  0.55500  0.31610  Biso   1.000  C
  C69      1.0000 0.13030  0.67180  0.41130  Biso   1.000  C
  C70      1.0000 0.16650  0.60380  0.47370  Biso   1.000  C
  C71      1.0000 0.26730  0.60710  0.52250  Biso   1.000  C
  C72      1.0000 0.33260  0.68210  0.51140  Biso   1.000  C
  C73      1.0000 0.29600  0.75120  0.45170  Biso   1.000  C
  C74      1.0000 0.19630  0.74680  0.39990  Biso   1.000  C
  C75      1.0000 0.44200  0.68260  0.56610  Biso   1.000  C
  C76      1.0000 0.69170  0.63380  0.77620  Biso   1.000  C
  C77      1.0000 0.68680  0.53470  0.79770  Biso   1.000  C
  C78      1.0000 0.68720  0.53960  0.67640  Biso   1.000  C
  C79      1.0000 0.67170  0.36540  0.72760  Biso   1.000  C
  C80      1.0000 0.74380  0.30360  0.78210  Biso   1.000  C
  C81      1.0000 0.73170  0.19710  0.77860  Biso   1.000  C
  C82      1.0000 0.64810  0.15660  0.72010  Biso   1.000  C
  C83      1.0000 0.57430  0.21580  0.66600  Biso   1.000  C
  C84      1.0000 0.58660  0.32530  0.66910  Biso   1.000  C
  C85      1.0000 0.67030  0.97810  0.67550  Biso   1.000  C
  C86      1.0000 0.57840  0.99160  0.75190  Biso   1.000  C
  C87      1.0000 0.58240  0.89190  0.73260  Biso   1.000  C
  F13      1.0000 0.88850  0.73940  0.25110  Biso   1.000  F
  F14      1.0000 0.00220  0.83950  0.32510  Biso   1.000  F
  F15      1.0000 0.03720  0.74000  0.24330  Biso   1.000  F
  F16      1.0000 0.00900  0.47840  0.36310  Biso   1.000  F
  F17      1.0000 0.92480  0.54530  0.25240  Biso   1.000  F
  F18      1.0000 0.08540  0.53810  0.29020  Biso   1.000  F
  N13      1.0000 0.69240  0.63650  0.70020  Biso   1.000  N
  N14      1.0000 0.68410  0.47510  0.73320  Biso   1.000  N
  N15      1.0000 0.51530  0.38530  0.61500  Biso   1.000  N
  N16      1.0000 0.48790  0.17590  0.61070  Biso   1.000  N
  N17      1.0000 0.63450  0.04550  0.71650  Biso   1.000  N
  N18      1.0000 0.64060  0.88330  0.68410  Biso   1.000  N
  O9       1.0000 0.75210  0.79170  0.57590  Biso   1.000  O
  O10      1.0000 0.67210  0.65310  0.52140  Biso   1.000  O
  O11      1.0000 0.49770  0.75690  0.55860  Biso   1.000  O
  O12      1.0000 0.47200  0.61260  0.61370  Biso   1.000  O
  Zn3      1.0000 0.64483  0.75258  0.62383  Biso   1.000  Zn
  C88      1.0000 0.25920  0.21670  0.96990  Biso   1.000  C
  C89      1.0000 0.18720  0.20410  0.01350  Biso   1.000  C
  C90      1.0000 0.09240  0.25020  0.98860  Biso   1.000  C
  C91      1.0000 0.02610  0.23300  0.02940  Biso   1.000  C
  C92      1.0000 0.05420  0.17090  0.09580  Biso   1.000  C
  C93      1.0000 0.15000  0.12560  0.12130  Biso   1.000  C
  C94      1.0000 0.21470  0.14290  0.07990  Biso   1.000  C
  C95      1.0000 0.98230  0.16130  0.14370  Biso   1.000  C
  C96      1.0000 0.01240  0.24630  0.20680  Biso   1.000  C
  C97      1.0000 0.99120  0.05500  0.18390  Biso   1.000  C
  C98      1.0000 0.86970  0.17180  0.08870  Biso   1.000  C
  C99      1.0000 0.83350  0.10380  0.02630  Biso   1.000  C
  C100     1.0000 0.73270  0.10710  0.97750  Biso   1.000  C
  C101     1.0000 0.66740  0.18210  0.98860  Biso   1.000  C
  C102     1.0000 0.70400  0.25120  0.04830  Biso   1.000  C
  C103     1.0000 0.80370  0.24680  0.10010  Biso   1.000  C
  C104     1.0000 0.55800  0.18260  0.93390  Biso   1.000  C
  C105     1.0000 0.30830  0.13380  0.72380  Biso   1.000  C
  C106     1.0000 0.31320  0.03470  0.70230  Biso   1.000  C
  C107     1.0000 0.31280  0.03960  0.82360  Biso   1.000  C
  C108     1.0000 0.32830  0.86540  0.77240  Biso   1.000  C
  C109     1.0000 0.25620  0.80360  0.71790  Biso   1.000  C
  C110     1.0000 0.26830  0.69710  0.72140  Biso   1.000  C
  C111     1.0000 0.35190  0.65660  0.77990  Biso   1.000  C
  C112     1.0000 0.42570  0.71580  0.83400  Biso   1.000  C
  C113     1.0000 0.41340  0.82530  0.83090  Biso   1.000  C
  C114     1.0000 0.32970  0.47810  0.82450  Biso   1.000  C
  C115     1.0000 0.42160  0.49160  0.74810  Biso   1.000  C
  C116     1.0000 0.41760  0.39190  0.76740  Biso   1.000  C
  F19      1.0000 0.11150  0.23940  0.24890  Biso   1.000  F
  F20      1.0000 0.99780  0.33950  0.17490  Biso   1.000  F
  F21      1.0000 0.96280  0.24000  0.25670  Biso   1.000  F
  F22      1.0000 0.99100  0.97840  0.13690  Biso   1.000  F
  F23      1.0000 0.07520  0.04530  0.24760  Biso   1.000  F
  F24      1.0000 0.91460  0.03810  0.20980  Biso   1.000  F
  N19      1.0000 0.30760  0.13650  0.79980  Biso   1.000  N
  N20      1.0000 0.31590  0.97510  0.76680  Biso   1.000  N
  N21      1.0000 0.48470  0.88530  0.88500  Biso   1.000  N
  N22      1.0000 0.51210  0.67590  0.88930  Biso   1.000  N
  N23      1.0000 0.36550  0.54550  0.78350  Biso   1.000  N
  N24      1.0000 0.35940  0.38330  0.81590  Biso   1.000  N
  O13      1.0000 0.24790  0.29170  0.92410  Biso   1.000  O
  O14      1.0000 0.32790  0.15310  0.97860  Biso   1.000  O
  O15      1.0000 0.50230  0.25690  0.94140  Biso   1.000  O
  O16      1.0000 0.52800  0.11260  0.88630  Biso   1.000  O
  Zn4      1.0000 0.35517  0.25258  0.87617  Biso   1.000  Zn
