data_image0
_cell_length_a       23.697
_cell_length_b       13.568
_cell_length_c       14.054
_cell_angle_alpha    90
_cell_angle_beta     103.593
_cell_angle_gamma    90

_symmetry_space_group_name_H-M    "P 1"
_symmetry_int_tables_number       1

loop_
  _symmetry_equiv_pos_as_xyz
  'x, y, z'

loop_
  _atom_site_label
  _atom_site_occupancy
  _atom_site_fract_x
  _atom_site_fract_y
  _atom_site_fract_z
  _atom_site_thermal_displace_type
  _atom_site_B_iso_or_equiv
  _atom_site_type_symbol
  N1       1.0000 0.18990  0.32550  0.54750  Biso   1.000  N
  N2       1.0000 0.25000  0.64900  0.89440  Biso   1.000  N
  N3       1.0000 0.18790  0.17310  0.40970  Biso   1.000  N
  C1       1.0000 0.25290  0.50780  0.74770  Biso   1.000  C
  C2       1.0000 0.10200  0.24330  0.45380  Biso   1.000  C
  C3       1.0000 0.19880  0.39570  0.61980  Biso   1.000  C
  C4       1.0000 0.19430  0.09930  0.34440  Biso   1.000  C
  C5       1.0000 0.03680  0.23890  0.43480  Biso   1.000  C
  C6       1.0000 0.12910  0.17980  0.40070  Biso   1.000  C
  C7       1.0000 0.13910  0.06120  0.29500  Biso   1.000  C
  H1       1.0000 0.13230  0.01140  0.24820  Biso   1.000  H
  C8       1.0000 0.09850  0.11060  0.32890  Biso   1.000  C
  H2       1.0000 0.05850  0.10180  0.30970  Biso   1.000  H
  C9       1.0000 0.13150  0.31160  0.52180  Biso   1.000  C
  C10      1.0000 0.25230  0.43220  0.67040  Biso   1.000  C
  C11      1.0000 0.14370  0.42850  0.63610  Biso   1.000  C
  H3       1.0000 0.13820  0.47670  0.68010  Biso   1.000  H
  C12      1.0000 0.24400  0.67330  0.80050  Biso   1.000  C
  H4       1.0000 0.23900  0.73960  0.78390  Biso   1.000  H
  C13      1.0000 0.10250  0.37700  0.57640  Biso   1.000  C
  H5       1.0000 0.06270  0.38190  0.57080  Biso   1.000  H
  C14      1.0000 0.26010  0.48190  0.84350  Biso   1.000  C
  H6       1.0000 0.26580  0.41610  0.86160  Biso   1.000  H
  C15      1.0000 0.00280  0.31040  0.37790  Biso   1.000  C
  H7       1.0000 0.01970  0.36310  0.35270  Biso   1.000  H
  C16      1.0000 0.24490  0.60650  0.72590  Biso   1.000  C
  H8       1.0000 0.24020  0.62830  0.66180  Biso   1.000  H
  F1       1.0000 0.90950  0.36590  0.30030  Biso   1.000  F
  C17      1.0000 0.25890  0.55230  0.91380  Biso   1.000  C
  H9       1.0000 0.26470  0.53180  0.97850  Biso   1.000  H
  C18      1.0000 0.01080  0.16230  0.47040  Biso   1.000  C
  H10      1.0000 0.03280  0.11250  0.50680  Biso   1.000  H
  F2       1.0000 0.85890  0.22330  0.37490  Biso   1.000  F
  F3       1.0000 0.92440  0.08270  0.48830  Biso   1.000  F
  C19      1.0000 0.94950  0.16040  0.45040  Biso   1.000  C
  C20      1.0000 0.91610  0.23020  0.39290  Biso   1.000  C
  C21      1.0000 0.94300  0.30130  0.35950  Biso   1.000  C
  N4       1.0000 0.31010  0.82550  0.95250  Biso   1.000  N
  N5       1.0000 0.25000  0.14900  0.60560  Biso   1.000  N
  N6       1.0000 0.31210  0.67310  0.09030  Biso   1.000  N
  C22      1.0000 0.24710  0.00780  0.75230  Biso   1.000  C
  C23      1.0000 0.39800  0.74330  0.04620  Biso   1.000  C
  C24      1.0000 0.30120  0.89570  0.88020  Biso   1.000  C
  C25      1.0000 0.30570  0.59930  0.15560  Biso   1.000  C
  C26      1.0000 0.46320  0.73890  0.06520  Biso   1.000  C
  C27      1.0000 0.37090  0.67980  0.09930  Biso   1.000  C
  C28      1.0000 0.36090  0.56120  0.20500  Biso   1.000  C
  H11      1.0000 0.36770  0.51140  0.25180  Biso   1.000  H
  C29      1.0000 0.40150  0.61060  0.17110  Biso   1.000  C
  H12      1.0000 0.44150  0.60180  0.19030  Biso   1.000  H
  C30      1.0000 0.36850  0.81160  0.97820  Biso   1.000  C
  C31      1.0000 0.24770  0.93220  0.82960  Biso   1.000  C
  C32      1.0000 0.35630  0.92850  0.86390  Biso   1.000  C
  H13      1.0000 0.36180  0.97670  0.81990  Biso   1.000  H
  C33      1.0000 0.25600  0.17330  0.69950  Biso   1.000  C
  H14      1.0000 0.26100  0.23960  0.71610  Biso   1.000  H
  C34      1.0000 0.39750  0.87700  0.92360  Biso   1.000  C
  H15      1.0000 0.43730  0.88190  0.92920  Biso   1.000  H
  C35      1.0000 0.23990  0.98190  0.65650  Biso   1.000  C
  H16      1.0000 0.23420  0.91610  0.63840  Biso   1.000  H
  C36      1.0000 0.49720  0.81040  0.12210  Biso   1.000  C
  H17      1.0000 0.48030  0.86310  0.14730  Biso   1.000  H
  C37      1.0000 0.25510  0.10650  0.77410  Biso   1.000  C
  H18      1.0000 0.25980  0.12830  0.83820  Biso   1.000  H
  F4       1.0000 0.59050  0.86590  0.19970  Biso   1.000  F
  C38      1.0000 0.24110  0.05230  0.58620  Biso   1.000  C
  H19      1.0000 0.23530  0.03180  0.52150  Biso   1.000  H
  C39      1.0000 0.48920  0.66230  0.02960  Biso   1.000  C
  H20      1.0000 0.46720  0.61250  0.99320  Biso   1.000  H
  F5       1.0000 0.64110  0.72330  0.12510  Biso   1.000  F
  F6       1.0000 0.57560  0.58270  0.01170  Biso   1.000  F
  C40      1.0000 0.55050  0.66040  0.04960  Biso   1.000  C
  C41      1.0000 0.58390  0.73020  0.10710  Biso   1.000  C
  C42      1.0000 0.55700  0.80130  0.14050  Biso   1.000  C
  N7       1.0000 0.31010  0.17450  0.45250  Biso   1.000  N
  N8       1.0000 0.25000  0.85100  0.10560  Biso   1.000  N
  N9       1.0000 0.31210  0.32690  0.59030  Biso   1.000  N
  C43      1.0000 0.24710  0.99220  0.25230  Biso   1.000  C
  C44      1.0000 0.39800  0.25670  0.54620  Biso   1.000  C
  C45      1.0000 0.30120  0.10430  0.38020  Biso   1.000  C
  C46      1.0000 0.30570  0.40070  0.65560  Biso   1.000  C
  C47      1.0000 0.46320  0.26110  0.56520  Biso   1.000  C
  C48      1.0000 0.37090  0.32020  0.59930  Biso   1.000  C
  C49      1.0000 0.36090  0.43880  0.70500  Biso   1.000  C
  H21      1.0000 0.36770  0.48860  0.75180  Biso   1.000  H
  C50      1.0000 0.40150  0.38940  0.67110  Biso   1.000  C
  H22      1.0000 0.44150  0.39820  0.69030  Biso   1.000  H
  C51      1.0000 0.36850  0.18840  0.47820  Biso   1.000  C
  C52      1.0000 0.24770  0.06780  0.32960  Biso   1.000  C
  C53      1.0000 0.35630  0.07150  0.36390  Biso   1.000  C
  H23      1.0000 0.36180  0.02330  0.31990  Biso   1.000  H
  C54      1.0000 0.25600  0.82670  0.19950  Biso   1.000  C
  H24      1.0000 0.26100  0.76040  0.21610  Biso   1.000  H
  C55      1.0000 0.39750  0.12300  0.42360  Biso   1.000  C
  H25      1.0000 0.43730  0.11810  0.42920  Biso   1.000  H
  C56      1.0000 0.23990  0.01810  0.15650  Biso   1.000  C
  H26      1.0000 0.23420  0.08390  0.13840  Biso   1.000  H
  C57      1.0000 0.49720  0.18960  0.62210  Biso   1.000  C
  H27      1.0000 0.48030  0.13690  0.64730  Biso   1.000  H
  C58      1.0000 0.25510  0.89350  0.27410  Biso   1.000  C
  H28      1.0000 0.25980  0.87170  0.33820  Biso   1.000  H
  F7       1.0000 0.59050  0.13410  0.69970  Biso   1.000  F
  C59      1.0000 0.24110  0.94770  0.08620  Biso   1.000  C
  H29      1.0000 0.23530  0.96820  0.02150  Biso   1.000  H
  C60      1.0000 0.48920  0.33770  0.52960  Biso   1.000  C
  H30      1.0000 0.46720  0.38750  0.49320  Biso   1.000  H
  F8       1.0000 0.64110  0.27670  0.62510  Biso   1.000  F
  F9       1.0000 0.57560  0.41730  0.51170  Biso   1.000  F
  C61      1.0000 0.55050  0.33960  0.54960  Biso   1.000  C
  C62      1.0000 0.58390  0.26980  0.60710  Biso   1.000  C
  C63      1.0000 0.55700  0.19870  0.64050  Biso   1.000  C
  N10      1.0000 0.18990  0.67450  0.04750  Biso   1.000  N
  N11      1.0000 0.25000  0.35100  0.39440  Biso   1.000  N
  N12      1.0000 0.18790  0.82690  0.90970  Biso   1.000  N
  C64      1.0000 0.25290  0.49220  0.24770  Biso   1.000  C
  C65      1.0000 0.10200  0.75670  0.95380  Biso   1.000  C
  C66      1.0000 0.19880  0.60430  0.11980  Biso   1.000  C
  C67      1.0000 0.19430  0.90070  0.84440  Biso   1.000  C
  C68      1.0000 0.03680  0.76110  0.93480  Biso   1.000  C
  C69      1.0000 0.12910  0.82020  0.90070  Biso   1.000  C
  C70      1.0000 0.13910  0.93880  0.79500  Biso   1.000  C
  H31      1.0000 0.13230  0.98860  0.74820  Biso   1.000  H
  C71      1.0000 0.09850  0.88940  0.82890  Biso   1.000  C
  H32      1.0000 0.05850  0.89820  0.80970  Biso   1.000  H
  C72      1.0000 0.13150  0.68840  0.02180  Biso   1.000  C
  C73      1.0000 0.25230  0.56780  0.17040  Biso   1.000  C
  C74      1.0000 0.14370  0.57150  0.13610  Biso   1.000  C
  H33      1.0000 0.13820  0.52330  0.18010  Biso   1.000  H
  C75      1.0000 0.24400  0.32670  0.30050  Biso   1.000  C
  H34      1.0000 0.23900  0.26040  0.28390  Biso   1.000  H
  C76      1.0000 0.10250  0.62300  0.07640  Biso   1.000  C
  H35      1.0000 0.06270  0.61810  0.07080  Biso   1.000  H
  C77      1.0000 0.26010  0.51810  0.34350  Biso   1.000  C
  H36      1.0000 0.26580  0.58390  0.36160  Biso   1.000  H
  C78      1.0000 0.00280  0.68960  0.87790  Biso   1.000  C
  H37      1.0000 0.01970  0.63690  0.85270  Biso   1.000  H
  C79      1.0000 0.24490  0.39350  0.22590  Biso   1.000  C
  H38      1.0000 0.24020  0.37170  0.16180  Biso   1.000  H
  F10      1.0000 0.90950  0.63410  0.80030  Biso   1.000  F
  C80      1.0000 0.25890  0.44770  0.41380  Biso   1.000  C
  H39      1.0000 0.26470  0.46820  0.47850  Biso   1.000  H
  C81      1.0000 0.01080  0.83770  0.97040  Biso   1.000  C
  H40      1.0000 0.03280  0.88750  0.00680  Biso   1.000  H
  F11      1.0000 0.85890  0.77670  0.87490  Biso   1.000  F
  F12      1.0000 0.92440  0.91730  0.98830  Biso   1.000  F
  C82      1.0000 0.94950  0.83960  0.95040  Biso   1.000  C
  C83      1.0000 0.91610  0.76980  0.89290  Biso   1.000  C
  C84      1.0000 0.94300  0.69870  0.85950  Biso   1.000  C
  Fe1      1.0000 0.25000  0.25000  0.50000  Biso   1.000  Fe
  Fe2      1.0000 0.25000  0.75000  0.00000  Biso   1.000  Fe
  N13      1.0000 0.68990  0.82550  0.54750  Biso   1.000  N
  N14      1.0000 0.75000  0.14900  0.89440  Biso   1.000  N
  N15      1.0000 0.68790  0.67310  0.40970  Biso   1.000  N
  C85      1.0000 0.75290  0.00780  0.74770  Biso   1.000  C
  C86      1.0000 0.60200  0.74330  0.45380  Biso   1.000  C
  C87      1.0000 0.69880  0.89570  0.61980  Biso   1.000  C
  C88      1.0000 0.69430  0.59930  0.34440  Biso   1.000  C
  C89      1.0000 0.53680  0.73890  0.43480  Biso   1.000  C
  C90      1.0000 0.62910  0.67980  0.40070  Biso   1.000  C
  C91      1.0000 0.63910  0.56120  0.29500  Biso   1.000  C
  H41      1.0000 0.63230  0.51140  0.24820  Biso   1.000  H
  C92      1.0000 0.59850  0.61060  0.32890  Biso   1.000  C
  H42      1.0000 0.55850  0.60180  0.30970  Biso   1.000  H
  C93      1.0000 0.63150  0.81160  0.52180  Biso   1.000  C
  C94      1.0000 0.75230  0.93220  0.67040  Biso   1.000  C
  C95      1.0000 0.64370  0.92850  0.63610  Biso   1.000  C
  H43      1.0000 0.63820  0.97670  0.68010  Biso   1.000  H
  C96      1.0000 0.74400  0.17330  0.80050  Biso   1.000  C
  H44      1.0000 0.73900  0.23960  0.78390  Biso   1.000  H
  C97      1.0000 0.60250  0.87700  0.57640  Biso   1.000  C
  H45      1.0000 0.56270  0.88190  0.57080  Biso   1.000  H
  C98      1.0000 0.76010  0.98190  0.84350  Biso   1.000  C
  H46      1.0000 0.76580  0.91610  0.86160  Biso   1.000  H
  C99      1.0000 0.50280  0.81040  0.37790  Biso   1.000  C
  H47      1.0000 0.51970  0.86310  0.35270  Biso   1.000  H
  C100     1.0000 0.74490  0.10650  0.72590  Biso   1.000  C
  H48      1.0000 0.74020  0.12830  0.66180  Biso   1.000  H
  F13      1.0000 0.40950  0.86590  0.30030  Biso   1.000  F
  C101     1.0000 0.75890  0.05230  0.91380  Biso   1.000  C
  H49      1.0000 0.76470  0.03180  0.97850  Biso   1.000  H
  C102     1.0000 0.51080  0.66230  0.47040  Biso   1.000  C
  H50      1.0000 0.53280  0.61250  0.50680  Biso   1.000  H
  F14      1.0000 0.35890  0.72330  0.37490  Biso   1.000  F
  F15      1.0000 0.42440  0.58270  0.48830  Biso   1.000  F
  C103     1.0000 0.44950  0.66040  0.45040  Biso   1.000  C
  C104     1.0000 0.41610  0.73020  0.39290  Biso   1.000  C
  C105     1.0000 0.44300  0.80130  0.35950  Biso   1.000  C
  N16      1.0000 0.81010  0.32550  0.95250  Biso   1.000  N
  N17      1.0000 0.75000  0.64900  0.60560  Biso   1.000  N
  N18      1.0000 0.81210  0.17310  0.09030  Biso   1.000  N
  C106     1.0000 0.74710  0.50780  0.75230  Biso   1.000  C
  C107     1.0000 0.89800  0.24330  0.04620  Biso   1.000  C
  C108     1.0000 0.80120  0.39570  0.88020  Biso   1.000  C
  C109     1.0000 0.80570  0.09930  0.15560  Biso   1.000  C
  C110     1.0000 0.96320  0.23890  0.06520  Biso   1.000  C
  C111     1.0000 0.87090  0.17980  0.09930  Biso   1.000  C
  C112     1.0000 0.86090  0.06120  0.20500  Biso   1.000  C
  H51      1.0000 0.86770  0.01140  0.25180  Biso   1.000  H
  C113     1.0000 0.90150  0.11060  0.17110  Biso   1.000  C
  H52      1.0000 0.94150  0.10180  0.19030  Biso   1.000  H
  C114     1.0000 0.86850  0.31160  0.97820  Biso   1.000  C
  C115     1.0000 0.74770  0.43220  0.82960  Biso   1.000  C
  C116     1.0000 0.85630  0.42850  0.86390  Biso   1.000  C
  H53      1.0000 0.86180  0.47670  0.81990  Biso   1.000  H
  C117     1.0000 0.75600  0.67330  0.69950  Biso   1.000  C
  H54      1.0000 0.76100  0.73960  0.71610  Biso   1.000  H
  C118     1.0000 0.89750  0.37700  0.92360  Biso   1.000  C
  H55      1.0000 0.93730  0.38190  0.92920  Biso   1.000  H
  C119     1.0000 0.73990  0.48190  0.65650  Biso   1.000  C
  H56      1.0000 0.73420  0.41610  0.63840  Biso   1.000  H
  C120     1.0000 0.99720  0.31040  0.12210  Biso   1.000  C
  H57      1.0000 0.98030  0.36310  0.14730  Biso   1.000  H
  C121     1.0000 0.75510  0.60650  0.77410  Biso   1.000  C
  H58      1.0000 0.75980  0.62830  0.83820  Biso   1.000  H
  F16      1.0000 0.09050  0.36590  0.19970  Biso   1.000  F
  C122     1.0000 0.74110  0.55230  0.58620  Biso   1.000  C
  H59      1.0000 0.73530  0.53180  0.52150  Biso   1.000  H
  C123     1.0000 0.98920  0.16230  0.02960  Biso   1.000  C
  H60      1.0000 0.96720  0.11250  0.99320  Biso   1.000  H
  F17      1.0000 0.14110  0.22330  0.12510  Biso   1.000  F
  F18      1.0000 0.07560  0.08270  0.01170  Biso   1.000  F
  C124     1.0000 0.05050  0.16040  0.04960  Biso   1.000  C
  C125     1.0000 0.08390  0.23020  0.10710  Biso   1.000  C
  C126     1.0000 0.05700  0.30130  0.14050  Biso   1.000  C
  N19      1.0000 0.81010  0.67450  0.45250  Biso   1.000  N
  N20      1.0000 0.75000  0.35100  0.10560  Biso   1.000  N
  N21      1.0000 0.81210  0.82690  0.59030  Biso   1.000  N
  C127     1.0000 0.74710  0.49220  0.25230  Biso   1.000  C
  C128     1.0000 0.89800  0.75670  0.54620  Biso   1.000  C
  C129     1.0000 0.80120  0.60430  0.38020  Biso   1.000  C
  C130     1.0000 0.80570  0.90070  0.65560  Biso   1.000  C
  C131     1.0000 0.96320  0.76110  0.56520  Biso   1.000  C
  C132     1.0000 0.87090  0.82020  0.59930  Biso   1.000  C
  C133     1.0000 0.86090  0.93880  0.70500  Biso   1.000  C
  H61      1.0000 0.86770  0.98860  0.75180  Biso   1.000  H
  C134     1.0000 0.90150  0.88940  0.67110  Biso   1.000  C
  H62      1.0000 0.94150  0.89820  0.69030  Biso   1.000  H
  C135     1.0000 0.86850  0.68840  0.47820  Biso   1.000  C
  C136     1.0000 0.74770  0.56780  0.32960  Biso   1.000  C
  C137     1.0000 0.85630  0.57150  0.36390  Biso   1.000  C
  H63      1.0000 0.86180  0.52330  0.31990  Biso   1.000  H
  C138     1.0000 0.75600  0.32670  0.19950  Biso   1.000  C
  H64      1.0000 0.76100  0.26040  0.21610  Biso   1.000  H
  C139     1.0000 0.89750  0.62300  0.42360  Biso   1.000  C
  H65      1.0000 0.93730  0.61810  0.42920  Biso   1.000  H
  C140     1.0000 0.73990  0.51810  0.15650  Biso   1.000  C
  H66      1.0000 0.73420  0.58390  0.13840  Biso   1.000  H
  C141     1.0000 0.99720  0.68960  0.62210  Biso   1.000  C
  H67      1.0000 0.98030  0.63690  0.64730  Biso   1.000  H
  C142     1.0000 0.75510  0.39350  0.27410  Biso   1.000  C
  H68      1.0000 0.75980  0.37170  0.33820  Biso   1.000  H
  F19      1.0000 0.09050  0.63410  0.69970  Biso   1.000  F
  C143     1.0000 0.74110  0.44770  0.08620  Biso   1.000  C
  H69      1.0000 0.73530  0.46820  0.02150  Biso   1.000  H
  C144     1.0000 0.98920  0.83770  0.52960  Biso   1.000  C
  H70      1.0000 0.96720  0.88750  0.49320  Biso   1.000  H
  F20      1.0000 0.14110  0.77670  0.62510  Biso   1.000  F
  F21      1.0000 0.07560  0.91730  0.51170  Biso   1.000  F
  C145     1.0000 0.05050  0.83960  0.54960  Biso   1.000  C
  C146     1.0000 0.08390  0.76980  0.60710  Biso   1.000  C
  C147     1.0000 0.05700  0.69870  0.64050  Biso   1.000  C
  N22      1.0000 0.68990  0.17450  0.04750  Biso   1.000  N
  N23      1.0000 0.75000  0.85100  0.39440  Biso   1.000  N
  N24      1.0000 0.68790  0.32690  0.90970  Biso   1.000  N
  C148     1.0000 0.75290  0.99220  0.24770  Biso   1.000  C
  C149     1.0000 0.60200  0.25670  0.95380  Biso   1.000  C
  C150     1.0000 0.69880  0.10430  0.11980  Biso   1.000  C
  C151     1.0000 0.69430  0.40070  0.84440  Biso   1.000  C
  C152     1.0000 0.53680  0.26110  0.93480  Biso   1.000  C
  C153     1.0000 0.62910  0.32020  0.90070  Biso   1.000  C
  C154     1.0000 0.63910  0.43880  0.79500  Biso   1.000  C
  H71      1.0000 0.63230  0.48860  0.74820  Biso   1.000  H
  C155     1.0000 0.59850  0.38940  0.82890  Biso   1.000  C
  H72      1.0000 0.55850  0.39820  0.80970  Biso   1.000  H
  C156     1.0000 0.63150  0.18840  0.02180  Biso   1.000  C
  C157     1.0000 0.75230  0.06780  0.17040  Biso   1.000  C
  C158     1.0000 0.64370  0.07150  0.13610  Biso   1.000  C
  H73      1.0000 0.63820  0.02330  0.18010  Biso   1.000  H
  C159     1.0000 0.74400  0.82670  0.30050  Biso   1.000  C
  H74      1.0000 0.73900  0.76040  0.28390  Biso   1.000  H
  C160     1.0000 0.60250  0.12300  0.07640  Biso   1.000  C
  H75      1.0000 0.56270  0.11810  0.07080  Biso   1.000  H
  C161     1.0000 0.76010  0.01810  0.34350  Biso   1.000  C
  H76      1.0000 0.76580  0.08390  0.36160  Biso   1.000  H
  C162     1.0000 0.50280  0.18960  0.87790  Biso   1.000  C
  H77      1.0000 0.51970  0.13690  0.85270  Biso   1.000  H
  C163     1.0000 0.74490  0.89350  0.22590  Biso   1.000  C
  H78      1.0000 0.74020  0.87170  0.16180  Biso   1.000  H
  F22      1.0000 0.40950  0.13410  0.80030  Biso   1.000  F
  C164     1.0000 0.75890  0.94770  0.41380  Biso   1.000  C
  H79      1.0000 0.76470  0.96820  0.47850  Biso   1.000  H
  C165     1.0000 0.51080  0.33770  0.97040  Biso   1.000  C
  H80      1.0000 0.53280  0.38750  0.00680  Biso   1.000  H
  F23      1.0000 0.35890  0.27670  0.87490  Biso   1.000  F
  F24      1.0000 0.42440  0.41730  0.98830  Biso   1.000  F
  C166     1.0000 0.44950  0.33960  0.95040  Biso   1.000  C
  C167     1.0000 0.41610  0.26980  0.89290  Biso   1.000  C
  C168     1.0000 0.44300  0.19870  0.85950  Biso   1.000  C
  Fe3      1.0000 0.75000  0.25000  0.00000  Biso   1.000  Fe
  Fe4      1.0000 0.75000  0.75000  0.50000  Biso   1.000  Fe
