data_image0
_cell_length_a       11.8806
_cell_length_b       9.1001
_cell_length_c       16.6475
_cell_angle_alpha    90
_cell_angle_beta     105.427
_cell_angle_gamma    90

_symmetry_space_group_name_H-M    "P 1"
_symmetry_int_tables_number       1

loop_
  _symmetry_equiv_pos_as_xyz
  'x, y, z'

loop_
  _atom_site_label
  _atom_site_occupancy
  _atom_site_fract_x
  _atom_site_fract_y
  _atom_site_fract_z
  _atom_site_thermal_displace_type
  _atom_site_B_iso_or_equiv
  _atom_site_type_symbol
  C1       1.0000 0.86520  0.02040  0.86940  Biso   1.000  C
  N1       1.0000 0.87800  0.90750  0.82134  Biso   1.000  N
  N2       1.0000 0.78540  0.53380  0.91600  Biso   1.000  N
  H1       1.0000 0.73450  0.59110  0.92790  Biso   1.000  H
  N3       1.0000 0.82180  0.54630  0.84591  Biso   1.000  N
  C2       1.0000 0.89950  0.43780  0.85120  Biso   1.000  C
  C3       1.0000 0.99270  0.22880  0.95480  Biso   1.000  C
  C4       1.0000 0.91180  0.35790  0.92533  Biso   1.000  C
  N4       1.0000 0.99130  0.91160  0.82010  Biso   1.000  N
  C5       1.0000 0.83710  0.42230  0.96500  Biso   1.000  C
  C6       1.0000 0.97100  0.09780  0.89780  Biso   1.000  C
  C7       1.0000 0.04900  0.02480  0.86420  Biso   1.000  C
  C8       1.0000 0.17410  0.05480  0.86750  Biso   1.000  C
  H2       1.0000 0.21720  0.07340  0.92410  Biso   1.000  H
  H3       1.0000 0.17870  0.13920  0.83390  Biso   1.000  H
  H4       1.0000 0.20670  0.97110  0.84670  Biso   1.000  H
  C9       1.0000 0.75050  0.05460  0.88520  Biso   1.000  C
  H5       1.0000 0.72370  0.97080  0.91000  Biso   1.000  H
  H6       1.0000 0.69480  0.07800  0.83350  Biso   1.000  H
  H7       1.0000 0.75900  0.13700  0.92240  Biso   1.000  H
  C10      1.0000 0.95910  0.41070  0.78440  Biso   1.000  C
  H8       1.0000 0.02450  0.47610  0.79160  Biso   1.000  H
  H9       1.0000 0.90530  0.42750  0.73100  Biso   1.000  H
  H10      1.0000 0.98610  0.31080  0.78770  Biso   1.000  H
  C11      1.0000 0.80400  0.38610  0.04340  Biso   1.000  C
  H11      1.0000 0.78530  0.47500  0.06810  Biso   1.000  H
  H12      1.0000 0.86810  0.33790  0.08170  Biso   1.000  H
  H13      1.0000 0.73720  0.32230  0.03060  Biso   1.000  H
  H14      1.0000 0.01800  0.85600  0.78400  Biso   1.000  H
  H15      1.0000 0.07800  0.26300  0.96700  Biso   1.000  H
  H16      1.0000 0.98700  0.21300  0.01100  Biso   1.000  H
  C12      1.0000 0.63480  0.02040  0.63060  Biso   1.000  C
  N5       1.0000 0.62200  0.90750  0.67866  Biso   1.000  N
  N6       1.0000 0.71460  0.53380  0.58400  Biso   1.000  N
  H17      1.0000 0.76550  0.59110  0.57210  Biso   1.000  H
  N7       1.0000 0.67820  0.54630  0.65409  Biso   1.000  N
  C13      1.0000 0.60050  0.43780  0.64880  Biso   1.000  C
  C14      1.0000 0.50730  0.22880  0.54520  Biso   1.000  C
  C15      1.0000 0.58820  0.35790  0.57467  Biso   1.000  C
  N8       1.0000 0.50870  0.91160  0.67990  Biso   1.000  N
  C16      1.0000 0.66290  0.42230  0.53500  Biso   1.000  C
  C17      1.0000 0.52900  0.09780  0.60220  Biso   1.000  C
  C18      1.0000 0.45100  0.02480  0.63580  Biso   1.000  C
  C19      1.0000 0.32590  0.05480  0.63250  Biso   1.000  C
  H18      1.0000 0.28280  0.07340  0.57590  Biso   1.000  H
  H19      1.0000 0.32130  0.13920  0.66610  Biso   1.000  H
  H20      1.0000 0.29330  0.97110  0.65330  Biso   1.000  H
  C20      1.0000 0.74950  0.05460  0.61480  Biso   1.000  C
  H21      1.0000 0.77630  0.97080  0.59000  Biso   1.000  H
  H22      1.0000 0.80520  0.07800  0.66650  Biso   1.000  H
  H23      1.0000 0.74100  0.13700  0.57760  Biso   1.000  H
  C21      1.0000 0.54090  0.41070  0.71560  Biso   1.000  C
  H24      1.0000 0.47550  0.47610  0.70840  Biso   1.000  H
  H25      1.0000 0.59470  0.42750  0.76900  Biso   1.000  H
  H26      1.0000 0.51390  0.31080  0.71230  Biso   1.000  H
  C22      1.0000 0.69600  0.38610  0.45660  Biso   1.000  C
  H27      1.0000 0.71470  0.47500  0.43190  Biso   1.000  H
  H28      1.0000 0.63190  0.33790  0.41830  Biso   1.000  H
  H29      1.0000 0.76280  0.32230  0.46940  Biso   1.000  H
  H30      1.0000 0.48200  0.85600  0.71600  Biso   1.000  H
  H31      1.0000 0.42200  0.26300  0.53300  Biso   1.000  H
  H32      1.0000 0.51300  0.21300  0.48900  Biso   1.000  H
  Cd1      1.0000 0.75000  0.73031  0.75000  Biso   1.000  Cd
  C23      1.0000 0.13480  0.97960  0.13060  Biso   1.000  C
  N9       1.0000 0.12200  0.09250  0.17866  Biso   1.000  N
  N10      1.0000 0.21460  0.46620  0.08400  Biso   1.000  N
  H33      1.0000 0.26550  0.40890  0.07210  Biso   1.000  H
  N11      1.0000 0.17820  0.45370  0.15409  Biso   1.000  N
  C24      1.0000 0.10050  0.56220  0.14880  Biso   1.000  C
  C25      1.0000 0.00730  0.77120  0.04520  Biso   1.000  C
  C26      1.0000 0.08820  0.64210  0.07467  Biso   1.000  C
  N12      1.0000 0.00870  0.08840  0.17990  Biso   1.000  N
  C27      1.0000 0.16290  0.57770  0.03500  Biso   1.000  C
  C28      1.0000 0.02900  0.90220  0.10220  Biso   1.000  C
  C29      1.0000 0.95100  0.97520  0.13580  Biso   1.000  C
  C30      1.0000 0.82590  0.94520  0.13250  Biso   1.000  C
  H34      1.0000 0.78280  0.92660  0.07590  Biso   1.000  H
  H35      1.0000 0.82130  0.86080  0.16610  Biso   1.000  H
  H36      1.0000 0.79330  0.02890  0.15330  Biso   1.000  H
  C31      1.0000 0.24950  0.94540  0.11480  Biso   1.000  C
  H37      1.0000 0.27630  0.02920  0.09000  Biso   1.000  H
  H38      1.0000 0.30520  0.92200  0.16650  Biso   1.000  H
  H39      1.0000 0.24100  0.86300  0.07760  Biso   1.000  H
  C32      1.0000 0.04090  0.58930  0.21560  Biso   1.000  C
  H40      1.0000 0.97550  0.52390  0.20840  Biso   1.000  H
  H41      1.0000 0.09470  0.57250  0.26900  Biso   1.000  H
  H42      1.0000 0.01390  0.68920  0.21230  Biso   1.000  H
  C33      1.0000 0.19600  0.61390  0.95660  Biso   1.000  C
  H43      1.0000 0.21470  0.52500  0.93190  Biso   1.000  H
  H44      1.0000 0.13190  0.66210  0.91830  Biso   1.000  H
  H45      1.0000 0.26280  0.67770  0.96940  Biso   1.000  H
  H46      1.0000 0.98200  0.14400  0.21600  Biso   1.000  H
  H47      1.0000 0.92200  0.73700  0.03300  Biso   1.000  H
  H48      1.0000 0.01300  0.78700  0.98900  Biso   1.000  H
  C34      1.0000 0.36520  0.97960  0.36940  Biso   1.000  C
  N13      1.0000 0.37800  0.09250  0.32134  Biso   1.000  N
  N14      1.0000 0.28540  0.46620  0.41600  Biso   1.000  N
  H49      1.0000 0.23450  0.40890  0.42790  Biso   1.000  H
  N15      1.0000 0.32180  0.45370  0.34591  Biso   1.000  N
  C35      1.0000 0.39950  0.56220  0.35120  Biso   1.000  C
  C36      1.0000 0.49270  0.77120  0.45480  Biso   1.000  C
  C37      1.0000 0.41180  0.64210  0.42533  Biso   1.000  C
  N16      1.0000 0.49130  0.08840  0.32010  Biso   1.000  N
  C38      1.0000 0.33710  0.57770  0.46500  Biso   1.000  C
  C39      1.0000 0.47100  0.90220  0.39780  Biso   1.000  C
  C40      1.0000 0.54900  0.97520  0.36420  Biso   1.000  C
  C41      1.0000 0.67410  0.94520  0.36750  Biso   1.000  C
  H50      1.0000 0.71720  0.92660  0.42410  Biso   1.000  H
  H51      1.0000 0.67870  0.86080  0.33390  Biso   1.000  H
  H52      1.0000 0.70670  0.02890  0.34670  Biso   1.000  H
  C42      1.0000 0.25050  0.94540  0.38520  Biso   1.000  C
  H53      1.0000 0.22370  0.02920  0.41000  Biso   1.000  H
  H54      1.0000 0.19480  0.92200  0.33350  Biso   1.000  H
  H55      1.0000 0.25900  0.86300  0.42240  Biso   1.000  H
  C43      1.0000 0.45910  0.58930  0.28440  Biso   1.000  C
  H56      1.0000 0.52450  0.52390  0.29160  Biso   1.000  H
  H57      1.0000 0.40530  0.57250  0.23100  Biso   1.000  H
  H58      1.0000 0.48610  0.68920  0.28770  Biso   1.000  H
  C44      1.0000 0.30400  0.61390  0.54340  Biso   1.000  C
  H59      1.0000 0.28530  0.52500  0.56810  Biso   1.000  H
  H60      1.0000 0.36810  0.66210  0.58170  Biso   1.000  H
  H61      1.0000 0.23720  0.67770  0.53060  Biso   1.000  H
  H62      1.0000 0.51800  0.14400  0.28400  Biso   1.000  H
  H63      1.0000 0.57800  0.73700  0.46700  Biso   1.000  H
  H64      1.0000 0.48700  0.78700  0.51100  Biso   1.000  H
  Cd2      1.0000 0.25000  0.26969  0.25000  Biso   1.000  Cd
