data_image0
_cell_length_a       7.2612
_cell_length_b       35.24
_cell_length_c       43.539
_cell_angle_alpha    90
_cell_angle_beta     90
_cell_angle_gamma    90

_symmetry_space_group_name_H-M    "P 1"
_symmetry_int_tables_number       1

loop_
  _symmetry_equiv_pos_as_xyz
  'x, y, z'

loop_
  _atom_site_label
  _atom_site_occupancy
  _atom_site_fract_x
  _atom_site_fract_y
  _atom_site_fract_z
  _atom_site_thermal_displace_type
  _atom_site_B_iso_or_equiv
  _atom_site_type_symbol
  C1       1.0000 0.57670  0.19100  0.18610  Biso   1.000  C
  C2       1.0000 0.57730  0.15600  0.20220  Biso   1.000  C
  C3       1.0000 0.42610  0.12630  0.16000  Biso   1.000  C
  C4       1.0000 0.42920  0.16050  0.14450  Biso   1.000  C
  N1       1.0000 0.40940  0.03995  0.23061  Biso   1.000  N
  N2       1.0000 0.34800  0.07010  0.21531  Biso   1.000  N
  C5       1.0000 0.07670  0.19100  0.68610  Biso   1.000  C
  C6       1.0000 0.07730  0.15600  0.70220  Biso   1.000  C
  C7       1.0000 0.92610  0.12630  0.66000  Biso   1.000  C
  C8       1.0000 0.92920  0.16050  0.64450  Biso   1.000  C
  N3       1.0000 0.90940  0.03995  0.73061  Biso   1.000  N
  N4       1.0000 0.84800  0.07010  0.71531  Biso   1.000  N
  C9       1.0000 0.42330  0.80900  0.18610  Biso   1.000  C
  C10      1.0000 0.42270  0.84400  0.20220  Biso   1.000  C
  C11      1.0000 0.57390  0.87370  0.16000  Biso   1.000  C
  C12      1.0000 0.57080  0.83950  0.14450  Biso   1.000  C
  N5       1.0000 0.59060  0.96005  0.23061  Biso   1.000  N
  N6       1.0000 0.65200  0.92990  0.21531  Biso   1.000  N
  C13      1.0000 0.92330  0.80900  0.68610  Biso   1.000  C
  C14      1.0000 0.92270  0.84400  0.70220  Biso   1.000  C
  C15      1.0000 0.07390  0.87370  0.66000  Biso   1.000  C
  C16      1.0000 0.07080  0.83950  0.64450  Biso   1.000  C
  N7       1.0000 0.09060  0.96005  0.73061  Biso   1.000  N
  N8       1.0000 0.15200  0.92990  0.71531  Biso   1.000  N
  C17      1.0000 0.42330  0.19100  0.81390  Biso   1.000  C
  C18      1.0000 0.42270  0.15600  0.79780  Biso   1.000  C
  C19      1.0000 0.57390  0.12630  0.84000  Biso   1.000  C
  C20      1.0000 0.57080  0.16050  0.85550  Biso   1.000  C
  N9       1.0000 0.59060  0.03995  0.76939  Biso   1.000  N
  N10      1.0000 0.65200  0.07010  0.78469  Biso   1.000  N
  C21      1.0000 0.92330  0.19100  0.31390  Biso   1.000  C
  C22      1.0000 0.92270  0.15600  0.29780  Biso   1.000  C
  C23      1.0000 0.07390  0.12630  0.34000  Biso   1.000  C
  C24      1.0000 0.07080  0.16050  0.35550  Biso   1.000  C
  N11      1.0000 0.09060  0.03995  0.26939  Biso   1.000  N
  N12      1.0000 0.15200  0.07010  0.28469  Biso   1.000  N
  C25      1.0000 0.57670  0.80900  0.81390  Biso   1.000  C
  C26      1.0000 0.57730  0.84400  0.79780  Biso   1.000  C
  C27      1.0000 0.42610  0.87370  0.84000  Biso   1.000  C
  C28      1.0000 0.42920  0.83950  0.85550  Biso   1.000  C
  N13      1.0000 0.40940  0.96005  0.76939  Biso   1.000  N
  N14      1.0000 0.34800  0.92990  0.78469  Biso   1.000  N
  C29      1.0000 0.07670  0.80900  0.31390  Biso   1.000  C
  C30      1.0000 0.07730  0.84400  0.29780  Biso   1.000  C
  C31      1.0000 0.92610  0.87370  0.34000  Biso   1.000  C
  C32      1.0000 0.92920  0.83950  0.35550  Biso   1.000  C
  N15      1.0000 0.90940  0.96005  0.26939  Biso   1.000  N
  N16      1.0000 0.84800  0.92990  0.28469  Biso   1.000  N
  C33      1.0000 0.42330  0.80900  0.81390  Biso   1.000  C
  C34      1.0000 0.42270  0.84400  0.79780  Biso   1.000  C
  C35      1.0000 0.57390  0.87370  0.84000  Biso   1.000  C
  C36      1.0000 0.57080  0.83950  0.85550  Biso   1.000  C
  N17      1.0000 0.59060  0.96005  0.76939  Biso   1.000  N
  N18      1.0000 0.65200  0.92990  0.78469  Biso   1.000  N
  C37      1.0000 0.92330  0.80900  0.31390  Biso   1.000  C
  C38      1.0000 0.92270  0.84400  0.29780  Biso   1.000  C
  C39      1.0000 0.07390  0.87370  0.34000  Biso   1.000  C
  C40      1.0000 0.07080  0.83950  0.35550  Biso   1.000  C
  N19      1.0000 0.09060  0.96005  0.26939  Biso   1.000  N
  N20      1.0000 0.15200  0.92990  0.28469  Biso   1.000  N
  C41      1.0000 0.57670  0.19100  0.81390  Biso   1.000  C
  C42      1.0000 0.57730  0.15600  0.79780  Biso   1.000  C
  C43      1.0000 0.42610  0.12630  0.84000  Biso   1.000  C
  C44      1.0000 0.42920  0.16050  0.85550  Biso   1.000  C
  N21      1.0000 0.40940  0.03995  0.76939  Biso   1.000  N
  N22      1.0000 0.34800  0.07010  0.78469  Biso   1.000  N
  C45      1.0000 0.07670  0.19100  0.31390  Biso   1.000  C
  C46      1.0000 0.07730  0.15600  0.29780  Biso   1.000  C
  C47      1.0000 0.92610  0.12630  0.34000  Biso   1.000  C
  C48      1.0000 0.92920  0.16050  0.35550  Biso   1.000  C
  N23      1.0000 0.90940  0.03995  0.26939  Biso   1.000  N
  N24      1.0000 0.84800  0.07010  0.28469  Biso   1.000  N
  C49      1.0000 0.57670  0.80900  0.18610  Biso   1.000  C
  C50      1.0000 0.57730  0.84400  0.20220  Biso   1.000  C
  C51      1.0000 0.42610  0.87370  0.16000  Biso   1.000  C
  C52      1.0000 0.42920  0.83950  0.14450  Biso   1.000  C
  N25      1.0000 0.40940  0.96005  0.23061  Biso   1.000  N
  N26      1.0000 0.34800  0.92990  0.21531  Biso   1.000  N
  C53      1.0000 0.07670  0.80900  0.68610  Biso   1.000  C
  C54      1.0000 0.07730  0.84400  0.70220  Biso   1.000  C
  C55      1.0000 0.92610  0.87370  0.66000  Biso   1.000  C
  C56      1.0000 0.92920  0.83950  0.64450  Biso   1.000  C
  N27      1.0000 0.90940  0.96005  0.73061  Biso   1.000  N
  N28      1.0000 0.84800  0.92990  0.71531  Biso   1.000  N
  C57      1.0000 0.42330  0.19100  0.18610  Biso   1.000  C
  C58      1.0000 0.42270  0.15600  0.20220  Biso   1.000  C
  C59      1.0000 0.57390  0.12630  0.16000  Biso   1.000  C
  C60      1.0000 0.57080  0.16050  0.14450  Biso   1.000  C
  N29      1.0000 0.59060  0.03995  0.23061  Biso   1.000  N
  N30      1.0000 0.65200  0.07010  0.21531  Biso   1.000  N
  C61      1.0000 0.92330  0.19100  0.68610  Biso   1.000  C
  C62      1.0000 0.92270  0.15600  0.70220  Biso   1.000  C
  C63      1.0000 0.07390  0.12630  0.66000  Biso   1.000  C
  C64      1.0000 0.07080  0.16050  0.64450  Biso   1.000  C
  N31      1.0000 0.09060  0.03995  0.73061  Biso   1.000  N
  N32      1.0000 0.15200  0.07010  0.71531  Biso   1.000  N
  Cu1      1.0000 0.50000  0.29941  0.00000  Biso   1.000  Cu
  Cu2      1.0000 0.00000  0.29941  0.50000  Biso   1.000  Cu
  Cu3      1.0000 0.50000  0.70059  0.00000  Biso   1.000  Cu
  Cu4      1.0000 0.00000  0.70059  0.50000  Biso   1.000  Cu
  Cu5      1.0000 0.25000  0.00000  0.25000  Biso   1.000  Cu
  Cu6      1.0000 0.75000  0.00000  0.25000  Biso   1.000  Cu
  Cu7      1.0000 0.75000  0.00000  0.75000  Biso   1.000  Cu
  Cu8      1.0000 0.25000  0.00000  0.75000  Biso   1.000  Cu
  C65      1.0000 0.50000  0.26500  0.05771  Biso   1.000  C
  C66      1.0000 0.50000  0.33462  0.15686  Biso   1.000  C
  C67      1.0000 0.50000  0.26507  0.09175  Biso   1.000  C
  C68      1.0000 0.50000  0.29909  0.10803  Biso   1.000  C
  H1       1.0000 0.50000  0.32210  0.09750  Biso   1.000  H
  C69      1.0000 0.50000  0.29877  0.13993  Biso   1.000  C
  C70      1.0000 0.50000  0.26439  0.15538  Biso   1.000  C
  H2       1.0000 0.50000  0.26440  0.17670  Biso   1.000  H
  C71      1.0000 0.50000  0.22960  0.13974  Biso   1.000  C
  C72      1.0000 0.50000  0.23077  0.10790  Biso   1.000  C
  H3       1.0000 0.50000  0.20810  0.09700  Biso   1.000  H
  C73      1.0000 0.50000  0.19314  0.15643  Biso   1.000  C
  C74      1.0000 0.50000  0.12423  0.18953  Biso   1.000  C
  C75      1.0000 0.50000  0.08809  0.20640  Biso   1.000  C
  O1       1.0000 0.50000  0.29722  0.04451  Biso   1.000  O
  O2       1.0000 0.50000  0.23383  0.04358  Biso   1.000  O
  O3       1.0000 0.50000  0.36503  0.14394  Biso   1.000  O
  O4       1.0000 0.50000  0.33151  0.18668  Biso   1.000  O
  C76      1.0000 0.00000  0.26500  0.55771  Biso   1.000  C
  C77      1.0000 0.00000  0.33462  0.65686  Biso   1.000  C
  C78      1.0000 0.00000  0.26507  0.59175  Biso   1.000  C
  C79      1.0000 0.00000  0.29909  0.60803  Biso   1.000  C
  H4       1.0000 0.00000  0.32210  0.59750  Biso   1.000  H
  C80      1.0000 0.00000  0.29877  0.63993  Biso   1.000  C
  C81      1.0000 0.00000  0.26439  0.65538  Biso   1.000  C
  H5       1.0000 0.00000  0.26440  0.67670  Biso   1.000  H
  C82      1.0000 0.00000  0.22960  0.63974  Biso   1.000  C
  C83      1.0000 0.00000  0.23077  0.60790  Biso   1.000  C
  H6       1.0000 0.00000  0.20810  0.59700  Biso   1.000  H
  C84      1.0000 0.00000  0.19314  0.65643  Biso   1.000  C
  C85      1.0000 0.00000  0.12423  0.68953  Biso   1.000  C
  C86      1.0000 0.00000  0.08809  0.70640  Biso   1.000  C
  O5       1.0000 0.00000  0.29722  0.54451  Biso   1.000  O
  O6       1.0000 0.00000  0.23383  0.54358  Biso   1.000  O
  O7       1.0000 0.00000  0.36503  0.64394  Biso   1.000  O
  O8       1.0000 0.00000  0.33151  0.68668  Biso   1.000  O
  C87      1.0000 0.50000  0.73500  0.05771  Biso   1.000  C
  C88      1.0000 0.50000  0.66538  0.15686  Biso   1.000  C
  C89      1.0000 0.50000  0.73493  0.09175  Biso   1.000  C
  C90      1.0000 0.50000  0.70091  0.10803  Biso   1.000  C
  H7       1.0000 0.50000  0.67790  0.09750  Biso   1.000  H
  C91      1.0000 0.50000  0.70123  0.13993  Biso   1.000  C
  C92      1.0000 0.50000  0.73561  0.15538  Biso   1.000  C
  H8       1.0000 0.50000  0.73560  0.17670  Biso   1.000  H
  C93      1.0000 0.50000  0.77040  0.13974  Biso   1.000  C
  C94      1.0000 0.50000  0.76923  0.10790  Biso   1.000  C
  H9       1.0000 0.50000  0.79190  0.09700  Biso   1.000  H
  C95      1.0000 0.50000  0.80686  0.15643  Biso   1.000  C
  C96      1.0000 0.50000  0.87577  0.18953  Biso   1.000  C
  C97      1.0000 0.50000  0.91191  0.20640  Biso   1.000  C
  O9       1.0000 0.50000  0.70278  0.04451  Biso   1.000  O
  O10      1.0000 0.50000  0.76617  0.04358  Biso   1.000  O
  O11      1.0000 0.50000  0.63497  0.14394  Biso   1.000  O
  O12      1.0000 0.50000  0.66849  0.18668  Biso   1.000  O
  C98      1.0000 0.00000  0.73500  0.55771  Biso   1.000  C
  C99      1.0000 0.00000  0.66538  0.65686  Biso   1.000  C
  C100     1.0000 0.00000  0.73493  0.59175  Biso   1.000  C
  C101     1.0000 0.00000  0.70091  0.60803  Biso   1.000  C
  H10      1.0000 0.00000  0.67790  0.59750  Biso   1.000  H
  C102     1.0000 0.00000  0.70123  0.63993  Biso   1.000  C
  C103     1.0000 0.00000  0.73561  0.65538  Biso   1.000  C
  H11      1.0000 0.00000  0.73560  0.67670  Biso   1.000  H
  C104     1.0000 0.00000  0.77040  0.63974  Biso   1.000  C
  C105     1.0000 0.00000  0.76923  0.60790  Biso   1.000  C
  H12      1.0000 0.00000  0.79190  0.59700  Biso   1.000  H
  C106     1.0000 0.00000  0.80686  0.65643  Biso   1.000  C
  C107     1.0000 0.00000  0.87577  0.68953  Biso   1.000  C
  C108     1.0000 0.00000  0.91191  0.70640  Biso   1.000  C
  O13      1.0000 0.00000  0.70278  0.54451  Biso   1.000  O
  O14      1.0000 0.00000  0.76617  0.54358  Biso   1.000  O
  O15      1.0000 0.00000  0.63497  0.64394  Biso   1.000  O
  O16      1.0000 0.00000  0.66849  0.68668  Biso   1.000  O
  C109     1.0000 0.50000  0.26500  0.94229  Biso   1.000  C
  C110     1.0000 0.50000  0.33462  0.84314  Biso   1.000  C
  C111     1.0000 0.50000  0.26507  0.90825  Biso   1.000  C
  C112     1.0000 0.50000  0.29909  0.89197  Biso   1.000  C
  H13      1.0000 0.50000  0.32210  0.90250  Biso   1.000  H
  C113     1.0000 0.50000  0.29877  0.86007  Biso   1.000  C
  C114     1.0000 0.50000  0.26439  0.84462  Biso   1.000  C
  H14      1.0000 0.50000  0.26440  0.82330  Biso   1.000  H
  C115     1.0000 0.50000  0.22960  0.86026  Biso   1.000  C
  C116     1.0000 0.50000  0.23077  0.89210  Biso   1.000  C
  H15      1.0000 0.50000  0.20810  0.90300  Biso   1.000  H
  C117     1.0000 0.50000  0.19314  0.84357  Biso   1.000  C
  C118     1.0000 0.50000  0.12423  0.81047  Biso   1.000  C
  C119     1.0000 0.50000  0.08809  0.79360  Biso   1.000  C
  O17      1.0000 0.50000  0.29722  0.95549  Biso   1.000  O
  O18      1.0000 0.50000  0.23383  0.95642  Biso   1.000  O
  O19      1.0000 0.50000  0.36503  0.85606  Biso   1.000  O
  O20      1.0000 0.50000  0.33151  0.81332  Biso   1.000  O
  C120     1.0000 0.00000  0.26500  0.44229  Biso   1.000  C
  C121     1.0000 0.00000  0.33462  0.34314  Biso   1.000  C
  C122     1.0000 0.00000  0.26507  0.40825  Biso   1.000  C
  C123     1.0000 0.00000  0.29909  0.39197  Biso   1.000  C
  H16      1.0000 0.00000  0.32210  0.40250  Biso   1.000  H
  C124     1.0000 0.00000  0.29877  0.36007  Biso   1.000  C
  C125     1.0000 0.00000  0.26439  0.34462  Biso   1.000  C
  H17      1.0000 0.00000  0.26440  0.32330  Biso   1.000  H
  C126     1.0000 0.00000  0.22960  0.36026  Biso   1.000  C
  C127     1.0000 0.00000  0.23077  0.39210  Biso   1.000  C
  H18      1.0000 0.00000  0.20810  0.40300  Biso   1.000  H
  C128     1.0000 0.00000  0.19314  0.34357  Biso   1.000  C
  C129     1.0000 0.00000  0.12423  0.31047  Biso   1.000  C
  C130     1.0000 0.00000  0.08809  0.29360  Biso   1.000  C
  O21      1.0000 0.00000  0.29722  0.45549  Biso   1.000  O
  O22      1.0000 0.00000  0.23383  0.45642  Biso   1.000  O
  O23      1.0000 0.00000  0.36503  0.35606  Biso   1.000  O
  O24      1.0000 0.00000  0.33151  0.31332  Biso   1.000  O
  C131     1.0000 0.50000  0.73500  0.94229  Biso   1.000  C
  C132     1.0000 0.50000  0.66538  0.84314  Biso   1.000  C
  C133     1.0000 0.50000  0.73493  0.90825  Biso   1.000  C
  C134     1.0000 0.50000  0.70091  0.89197  Biso   1.000  C
  H19      1.0000 0.50000  0.67790  0.90250  Biso   1.000  H
  C135     1.0000 0.50000  0.70123  0.86007  Biso   1.000  C
  C136     1.0000 0.50000  0.73561  0.84462  Biso   1.000  C
  H20      1.0000 0.50000  0.73560  0.82330  Biso   1.000  H
  C137     1.0000 0.50000  0.77040  0.86026  Biso   1.000  C
  C138     1.0000 0.50000  0.76923  0.89210  Biso   1.000  C
  H21      1.0000 0.50000  0.79190  0.90300  Biso   1.000  H
  C139     1.0000 0.50000  0.80686  0.84357  Biso   1.000  C
  C140     1.0000 0.50000  0.87577  0.81047  Biso   1.000  C
  C141     1.0000 0.50000  0.91191  0.79360  Biso   1.000  C
  O25      1.0000 0.50000  0.70278  0.95549  Biso   1.000  O
  O26      1.0000 0.50000  0.76617  0.95642  Biso   1.000  O
  O27      1.0000 0.50000  0.63497  0.85606  Biso   1.000  O
  O28      1.0000 0.50000  0.66849  0.81332  Biso   1.000  O
  C142     1.0000 0.00000  0.73500  0.44229  Biso   1.000  C
  C143     1.0000 0.00000  0.66538  0.34314  Biso   1.000  C
  C144     1.0000 0.00000  0.73493  0.40825  Biso   1.000  C
  C145     1.0000 0.00000  0.70091  0.39197  Biso   1.000  C
  H22      1.0000 0.00000  0.67790  0.40250  Biso   1.000  H
  C146     1.0000 0.00000  0.70123  0.36007  Biso   1.000  C
  C147     1.0000 0.00000  0.73561  0.34462  Biso   1.000  C
  H23      1.0000 0.00000  0.73560  0.32330  Biso   1.000  H
  C148     1.0000 0.00000  0.77040  0.36026  Biso   1.000  C
  C149     1.0000 0.00000  0.76923  0.39210  Biso   1.000  C
  H24      1.0000 0.00000  0.79190  0.40300  Biso   1.000  H
  C150     1.0000 0.00000  0.80686  0.34357  Biso   1.000  C
  C151     1.0000 0.00000  0.87577  0.31047  Biso   1.000  C
  C152     1.0000 0.00000  0.91191  0.29360  Biso   1.000  C
  O29      1.0000 0.00000  0.70278  0.45549  Biso   1.000  O
  O30      1.0000 0.00000  0.76617  0.45642  Biso   1.000  O
  O31      1.0000 0.00000  0.63497  0.35606  Biso   1.000  O
  O32      1.0000 0.00000  0.66849  0.31332  Biso   1.000  O
  C153     1.0000 0.57670  0.69100  0.68610  Biso   1.000  C
  C154     1.0000 0.57730  0.65600  0.70220  Biso   1.000  C
  C155     1.0000 0.42610  0.62630  0.66000  Biso   1.000  C
  C156     1.0000 0.42920  0.66050  0.64450  Biso   1.000  C
  N33      1.0000 0.40940  0.53995  0.73061  Biso   1.000  N
  N34      1.0000 0.34800  0.57010  0.71531  Biso   1.000  N
  C157     1.0000 0.07670  0.69100  0.18610  Biso   1.000  C
  C158     1.0000 0.07730  0.65600  0.20220  Biso   1.000  C
  C159     1.0000 0.92610  0.62630  0.16000  Biso   1.000  C
  C160     1.0000 0.92920  0.66050  0.14450  Biso   1.000  C
  N35      1.0000 0.90940  0.53995  0.23061  Biso   1.000  N
  N36      1.0000 0.84800  0.57010  0.21531  Biso   1.000  N
  C161     1.0000 0.42330  0.30900  0.68610  Biso   1.000  C
  C162     1.0000 0.42270  0.34400  0.70220  Biso   1.000  C
  C163     1.0000 0.57390  0.37370  0.66000  Biso   1.000  C
  C164     1.0000 0.57080  0.33950  0.64450  Biso   1.000  C
  N37      1.0000 0.59060  0.46005  0.73061  Biso   1.000  N
  N38      1.0000 0.65200  0.42990  0.71531  Biso   1.000  N
  C165     1.0000 0.92330  0.30900  0.18610  Biso   1.000  C
  C166     1.0000 0.92270  0.34400  0.20220  Biso   1.000  C
  C167     1.0000 0.07390  0.37370  0.16000  Biso   1.000  C
  C168     1.0000 0.07080  0.33950  0.14450  Biso   1.000  C
  N39      1.0000 0.09060  0.46005  0.23061  Biso   1.000  N
  N40      1.0000 0.15200  0.42990  0.21531  Biso   1.000  N
  C169     1.0000 0.42330  0.69100  0.31390  Biso   1.000  C
  C170     1.0000 0.42270  0.65600  0.29780  Biso   1.000  C
  C171     1.0000 0.57390  0.62630  0.34000  Biso   1.000  C
  C172     1.0000 0.57080  0.66050  0.35550  Biso   1.000  C
  N41      1.0000 0.59060  0.53995  0.26939  Biso   1.000  N
  N42      1.0000 0.65200  0.57010  0.28469  Biso   1.000  N
  C173     1.0000 0.92330  0.69100  0.81390  Biso   1.000  C
  C174     1.0000 0.92270  0.65600  0.79780  Biso   1.000  C
  C175     1.0000 0.07390  0.62630  0.84000  Biso   1.000  C
  C176     1.0000 0.07080  0.66050  0.85550  Biso   1.000  C
  N43      1.0000 0.09060  0.53995  0.76939  Biso   1.000  N
  N44      1.0000 0.15200  0.57010  0.78469  Biso   1.000  N
  C177     1.0000 0.57670  0.30900  0.31390  Biso   1.000  C
  C178     1.0000 0.57730  0.34400  0.29780  Biso   1.000  C
  C179     1.0000 0.42610  0.37370  0.34000  Biso   1.000  C
  C180     1.0000 0.42920  0.33950  0.35550  Biso   1.000  C
  N45      1.0000 0.40940  0.46005  0.26939  Biso   1.000  N
  N46      1.0000 0.34800  0.42990  0.28469  Biso   1.000  N
  C181     1.0000 0.07670  0.30900  0.81390  Biso   1.000  C
  C182     1.0000 0.07730  0.34400  0.79780  Biso   1.000  C
  C183     1.0000 0.92610  0.37370  0.84000  Biso   1.000  C
  C184     1.0000 0.92920  0.33950  0.85550  Biso   1.000  C
  N47      1.0000 0.90940  0.46005  0.76939  Biso   1.000  N
  N48      1.0000 0.84800  0.42990  0.78469  Biso   1.000  N
  C185     1.0000 0.42330  0.30900  0.31390  Biso   1.000  C
  C186     1.0000 0.42270  0.34400  0.29780  Biso   1.000  C
  C187     1.0000 0.57390  0.37370  0.34000  Biso   1.000  C
  C188     1.0000 0.57080  0.33950  0.35550  Biso   1.000  C
  N49      1.0000 0.59060  0.46005  0.26939  Biso   1.000  N
  N50      1.0000 0.65200  0.42990  0.28469  Biso   1.000  N
  C189     1.0000 0.92330  0.30900  0.81390  Biso   1.000  C
  C190     1.0000 0.92270  0.34400  0.79780  Biso   1.000  C
  C191     1.0000 0.07390  0.37370  0.84000  Biso   1.000  C
  C192     1.0000 0.07080  0.33950  0.85550  Biso   1.000  C
  N51      1.0000 0.09060  0.46005  0.76939  Biso   1.000  N
  N52      1.0000 0.15200  0.42990  0.78469  Biso   1.000  N
  C193     1.0000 0.57670  0.69100  0.31390  Biso   1.000  C
  C194     1.0000 0.57730  0.65600  0.29780  Biso   1.000  C
  C195     1.0000 0.42610  0.62630  0.34000  Biso   1.000  C
  C196     1.0000 0.42920  0.66050  0.35550  Biso   1.000  C
  N53      1.0000 0.40940  0.53995  0.26939  Biso   1.000  N
  N54      1.0000 0.34800  0.57010  0.28469  Biso   1.000  N
  C197     1.0000 0.07670  0.69100  0.81390  Biso   1.000  C
  C198     1.0000 0.07730  0.65600  0.79780  Biso   1.000  C
  C199     1.0000 0.92610  0.62630  0.84000  Biso   1.000  C
  C200     1.0000 0.92920  0.66050  0.85550  Biso   1.000  C
  N55      1.0000 0.90940  0.53995  0.76939  Biso   1.000  N
  N56      1.0000 0.84800  0.57010  0.78469  Biso   1.000  N
  C201     1.0000 0.57670  0.30900  0.68610  Biso   1.000  C
  C202     1.0000 0.57730  0.34400  0.70220  Biso   1.000  C
  C203     1.0000 0.42610  0.37370  0.66000  Biso   1.000  C
  C204     1.0000 0.42920  0.33950  0.64450  Biso   1.000  C
  N57      1.0000 0.40940  0.46005  0.73061  Biso   1.000  N
  N58      1.0000 0.34800  0.42990  0.71531  Biso   1.000  N
  C205     1.0000 0.07670  0.30900  0.18610  Biso   1.000  C
  C206     1.0000 0.07730  0.34400  0.20220  Biso   1.000  C
  C207     1.0000 0.92610  0.37370  0.16000  Biso   1.000  C
  C208     1.0000 0.92920  0.33950  0.14450  Biso   1.000  C
  N59      1.0000 0.90940  0.46005  0.23061  Biso   1.000  N
  N60      1.0000 0.84800  0.42990  0.21531  Biso   1.000  N
  C209     1.0000 0.42330  0.69100  0.68610  Biso   1.000  C
  C210     1.0000 0.42270  0.65600  0.70220  Biso   1.000  C
  C211     1.0000 0.57390  0.62630  0.66000  Biso   1.000  C
  C212     1.0000 0.57080  0.66050  0.64450  Biso   1.000  C
  N61      1.0000 0.59060  0.53995  0.73061  Biso   1.000  N
  N62      1.0000 0.65200  0.57010  0.71531  Biso   1.000  N
  C213     1.0000 0.92330  0.69100  0.18610  Biso   1.000  C
  C214     1.0000 0.92270  0.65600  0.20220  Biso   1.000  C
  C215     1.0000 0.07390  0.62630  0.16000  Biso   1.000  C
  C216     1.0000 0.07080  0.66050  0.14450  Biso   1.000  C
  N63      1.0000 0.09060  0.53995  0.23061  Biso   1.000  N
  N64      1.0000 0.15200  0.57010  0.21531  Biso   1.000  N
  Cu9      1.0000 0.50000  0.79941  0.50000  Biso   1.000  Cu
  Cu10     1.0000 0.00000  0.79941  0.00000  Biso   1.000  Cu
  Cu11     1.0000 0.50000  0.20059  0.50000  Biso   1.000  Cu
  Cu12     1.0000 0.00000  0.20059  0.00000  Biso   1.000  Cu
  Cu13     1.0000 0.25000  0.50000  0.75000  Biso   1.000  Cu
  Cu14     1.0000 0.75000  0.50000  0.75000  Biso   1.000  Cu
  Cu15     1.0000 0.25000  0.50000  0.25000  Biso   1.000  Cu
  Cu16     1.0000 0.75000  0.50000  0.25000  Biso   1.000  Cu
  C217     1.0000 0.50000  0.76500  0.55771  Biso   1.000  C
  C218     1.0000 0.50000  0.83462  0.65686  Biso   1.000  C
  C219     1.0000 0.50000  0.76507  0.59175  Biso   1.000  C
  C220     1.0000 0.50000  0.79909  0.60803  Biso   1.000  C
  H25      1.0000 0.50000  0.82210  0.59750  Biso   1.000  H
  C221     1.0000 0.50000  0.79877  0.63993  Biso   1.000  C
  C222     1.0000 0.50000  0.76439  0.65538  Biso   1.000  C
  H26      1.0000 0.50000  0.76440  0.67670  Biso   1.000  H
  C223     1.0000 0.50000  0.72960  0.63974  Biso   1.000  C
  C224     1.0000 0.50000  0.73077  0.60790  Biso   1.000  C
  H27      1.0000 0.50000  0.70810  0.59700  Biso   1.000  H
  C225     1.0000 0.50000  0.69314  0.65643  Biso   1.000  C
  C226     1.0000 0.50000  0.62423  0.68953  Biso   1.000  C
  C227     1.0000 0.50000  0.58809  0.70640  Biso   1.000  C
  O33      1.0000 0.50000  0.79722  0.54451  Biso   1.000  O
  O34      1.0000 0.50000  0.73383  0.54358  Biso   1.000  O
  O35      1.0000 0.50000  0.86503  0.64394  Biso   1.000  O
  O36      1.0000 0.50000  0.83151  0.68668  Biso   1.000  O
  C228     1.0000 0.00000  0.76500  0.05771  Biso   1.000  C
  C229     1.0000 0.00000  0.83462  0.15686  Biso   1.000  C
  C230     1.0000 0.00000  0.76507  0.09175  Biso   1.000  C
  C231     1.0000 0.00000  0.79909  0.10803  Biso   1.000  C
  H28      1.0000 0.00000  0.82210  0.09750  Biso   1.000  H
  C232     1.0000 0.00000  0.79877  0.13993  Biso   1.000  C
  C233     1.0000 0.00000  0.76439  0.15538  Biso   1.000  C
  H29      1.0000 0.00000  0.76440  0.17670  Biso   1.000  H
  C234     1.0000 0.00000  0.72960  0.13974  Biso   1.000  C
  C235     1.0000 0.00000  0.73077  0.10790  Biso   1.000  C
  H30      1.0000 0.00000  0.70810  0.09700  Biso   1.000  H
  C236     1.0000 0.00000  0.69314  0.15643  Biso   1.000  C
  C237     1.0000 0.00000  0.62423  0.18953  Biso   1.000  C
  C238     1.0000 0.00000  0.58809  0.20640  Biso   1.000  C
  O37      1.0000 0.00000  0.79722  0.04451  Biso   1.000  O
  O38      1.0000 0.00000  0.73383  0.04358  Biso   1.000  O
  O39      1.0000 0.00000  0.86503  0.14394  Biso   1.000  O
  O40      1.0000 0.00000  0.83151  0.18668  Biso   1.000  O
  C239     1.0000 0.50000  0.23500  0.55771  Biso   1.000  C
  C240     1.0000 0.50000  0.16538  0.65686  Biso   1.000  C
  C241     1.0000 0.50000  0.23493  0.59175  Biso   1.000  C
  C242     1.0000 0.50000  0.20091  0.60803  Biso   1.000  C
  H31      1.0000 0.50000  0.17790  0.59750  Biso   1.000  H
  C243     1.0000 0.50000  0.20123  0.63993  Biso   1.000  C
  C244     1.0000 0.50000  0.23561  0.65538  Biso   1.000  C
  H32      1.0000 0.50000  0.23560  0.67670  Biso   1.000  H
  C245     1.0000 0.50000  0.27040  0.63974  Biso   1.000  C
  C246     1.0000 0.50000  0.26923  0.60790  Biso   1.000  C
  H33      1.0000 0.50000  0.29190  0.59700  Biso   1.000  H
  C247     1.0000 0.50000  0.30686  0.65643  Biso   1.000  C
  C248     1.0000 0.50000  0.37577  0.68953  Biso   1.000  C
  C249     1.0000 0.50000  0.41191  0.70640  Biso   1.000  C
  O41      1.0000 0.50000  0.20278  0.54451  Biso   1.000  O
  O42      1.0000 0.50000  0.26617  0.54358  Biso   1.000  O
  O43      1.0000 0.50000  0.13497  0.64394  Biso   1.000  O
  O44      1.0000 0.50000  0.16849  0.68668  Biso   1.000  O
  C250     1.0000 0.00000  0.23500  0.05771  Biso   1.000  C
  C251     1.0000 0.00000  0.16538  0.15686  Biso   1.000  C
  C252     1.0000 0.00000  0.23493  0.09175  Biso   1.000  C
  C253     1.0000 0.00000  0.20091  0.10803  Biso   1.000  C
  H34      1.0000 0.00000  0.17790  0.09750  Biso   1.000  H
  C254     1.0000 0.00000  0.20123  0.13993  Biso   1.000  C
  C255     1.0000 0.00000  0.23561  0.15538  Biso   1.000  C
  H35      1.0000 0.00000  0.23560  0.17670  Biso   1.000  H
  C256     1.0000 0.00000  0.27040  0.13974  Biso   1.000  C
  C257     1.0000 0.00000  0.26923  0.10790  Biso   1.000  C
  H36      1.0000 0.00000  0.29190  0.09700  Biso   1.000  H
  C258     1.0000 0.00000  0.30686  0.15643  Biso   1.000  C
  C259     1.0000 0.00000  0.37577  0.18953  Biso   1.000  C
  C260     1.0000 0.00000  0.41191  0.20640  Biso   1.000  C
  O45      1.0000 0.00000  0.20278  0.04451  Biso   1.000  O
  O46      1.0000 0.00000  0.26617  0.04358  Biso   1.000  O
  O47      1.0000 0.00000  0.13497  0.14394  Biso   1.000  O
  O48      1.0000 0.00000  0.16849  0.18668  Biso   1.000  O
  C261     1.0000 0.50000  0.76500  0.44229  Biso   1.000  C
  C262     1.0000 0.50000  0.83462  0.34314  Biso   1.000  C
  C263     1.0000 0.50000  0.76507  0.40825  Biso   1.000  C
  C264     1.0000 0.50000  0.79909  0.39197  Biso   1.000  C
  H37      1.0000 0.50000  0.82210  0.40250  Biso   1.000  H
  C265     1.0000 0.50000  0.79877  0.36007  Biso   1.000  C
  C266     1.0000 0.50000  0.76439  0.34462  Biso   1.000  C
  H38      1.0000 0.50000  0.76440  0.32330  Biso   1.000  H
  C267     1.0000 0.50000  0.72960  0.36026  Biso   1.000  C
  C268     1.0000 0.50000  0.73077  0.39210  Biso   1.000  C
  H39      1.0000 0.50000  0.70810  0.40300  Biso   1.000  H
  C269     1.0000 0.50000  0.69314  0.34357  Biso   1.000  C
  C270     1.0000 0.50000  0.62423  0.31047  Biso   1.000  C
  C271     1.0000 0.50000  0.58809  0.29360  Biso   1.000  C
  O49      1.0000 0.50000  0.79722  0.45549  Biso   1.000  O
  O50      1.0000 0.50000  0.73383  0.45642  Biso   1.000  O
  O51      1.0000 0.50000  0.86503  0.35606  Biso   1.000  O
  O52      1.0000 0.50000  0.83151  0.31332  Biso   1.000  O
  C272     1.0000 0.00000  0.76500  0.94229  Biso   1.000  C
  C273     1.0000 0.00000  0.83462  0.84314  Biso   1.000  C
  C274     1.0000 0.00000  0.76507  0.90825  Biso   1.000  C
  C275     1.0000 0.00000  0.79909  0.89197  Biso   1.000  C
  H40      1.0000 0.00000  0.82210  0.90250  Biso   1.000  H
  C276     1.0000 0.00000  0.79877  0.86007  Biso   1.000  C
  C277     1.0000 0.00000  0.76439  0.84462  Biso   1.000  C
  H41      1.0000 0.00000  0.76440  0.82330  Biso   1.000  H
  C278     1.0000 0.00000  0.72960  0.86026  Biso   1.000  C
  C279     1.0000 0.00000  0.73077  0.89210  Biso   1.000  C
  H42      1.0000 0.00000  0.70810  0.90300  Biso   1.000  H
  C280     1.0000 0.00000  0.69314  0.84357  Biso   1.000  C
  C281     1.0000 0.00000  0.62423  0.81047  Biso   1.000  C
  C282     1.0000 0.00000  0.58809  0.79360  Biso   1.000  C
  O53      1.0000 0.00000  0.79722  0.95549  Biso   1.000  O
  O54      1.0000 0.00000  0.73383  0.95642  Biso   1.000  O
  O55      1.0000 0.00000  0.86503  0.85606  Biso   1.000  O
  O56      1.0000 0.00000  0.83151  0.81332  Biso   1.000  O
  C283     1.0000 0.50000  0.23500  0.44229  Biso   1.000  C
  C284     1.0000 0.50000  0.16538  0.34314  Biso   1.000  C
  C285     1.0000 0.50000  0.23493  0.40825  Biso   1.000  C
  C286     1.0000 0.50000  0.20091  0.39197  Biso   1.000  C
  H43      1.0000 0.50000  0.17790  0.40250  Biso   1.000  H
  C287     1.0000 0.50000  0.20123  0.36007  Biso   1.000  C
  C288     1.0000 0.50000  0.23561  0.34462  Biso   1.000  C
  H44      1.0000 0.50000  0.23560  0.32330  Biso   1.000  H
  C289     1.0000 0.50000  0.27040  0.36026  Biso   1.000  C
  C290     1.0000 0.50000  0.26923  0.39210  Biso   1.000  C
  H45      1.0000 0.50000  0.29190  0.40300  Biso   1.000  H
  C291     1.0000 0.50000  0.30686  0.34357  Biso   1.000  C
  C292     1.0000 0.50000  0.37577  0.31047  Biso   1.000  C
  C293     1.0000 0.50000  0.41191  0.29360  Biso   1.000  C
  O57      1.0000 0.50000  0.20278  0.45549  Biso   1.000  O
  O58      1.0000 0.50000  0.26617  0.45642  Biso   1.000  O
  O59      1.0000 0.50000  0.13497  0.35606  Biso   1.000  O
  O60      1.0000 0.50000  0.16849  0.31332  Biso   1.000  O
  C294     1.0000 0.00000  0.23500  0.94229  Biso   1.000  C
  C295     1.0000 0.00000  0.16538  0.84314  Biso   1.000  C
  C296     1.0000 0.00000  0.23493  0.90825  Biso   1.000  C
  C297     1.0000 0.00000  0.20091  0.89197  Biso   1.000  C
  H46      1.0000 0.00000  0.17790  0.90250  Biso   1.000  H
  C298     1.0000 0.00000  0.20123  0.86007  Biso   1.000  C
  C299     1.0000 0.00000  0.23561  0.84462  Biso   1.000  C
  H47      1.0000 0.00000  0.23560  0.82330  Biso   1.000  H
  C300     1.0000 0.00000  0.27040  0.86026  Biso   1.000  C
  C301     1.0000 0.00000  0.26923  0.89210  Biso   1.000  C
  H48      1.0000 0.00000  0.29190  0.90300  Biso   1.000  H
  C302     1.0000 0.00000  0.30686  0.84357  Biso   1.000  C
  C303     1.0000 0.00000  0.37577  0.81047  Biso   1.000  C
  C304     1.0000 0.00000  0.41191  0.79360  Biso   1.000  C
  O61      1.0000 0.00000  0.20278  0.95549  Biso   1.000  O
  O62      1.0000 0.00000  0.26617  0.95642  Biso   1.000  O
  O63      1.0000 0.00000  0.13497  0.85606  Biso   1.000  O
  O64      1.0000 0.00000  0.16849  0.81332  Biso   1.000  O
