data_image0
_cell_length_a       11.2575
_cell_length_b       11.5731
_cell_length_c       12.6963
_cell_angle_alpha    68.006
_cell_angle_beta     84.601
_cell_angle_gamma    89.677

_symmetry_space_group_name_H-M    "P 1"
_symmetry_int_tables_number       1

loop_
  _symmetry_equiv_pos_as_xyz
  'x, y, z'

loop_
  _atom_site_label
  _atom_site_occupancy
  _atom_site_fract_x
  _atom_site_fract_y
  _atom_site_fract_z
  _atom_site_thermal_displace_type
  _atom_site_B_iso_or_equiv
  _atom_site_type_symbol
  La1      1.0000 0.40289  0.39943  0.39726  Biso   1.000  La
  S1       1.0000 0.07842  0.12736  0.14907  Biso   1.000  S
  O1       1.0000 0.32090  0.31900  0.60450  Biso   1.000  O
  O2       1.0000 0.43860  0.43360  0.66520  Biso   1.000  O
  O3       1.0000 0.96520  0.07990  0.13300  Biso   1.000  O
  O4       1.0000 0.07750  0.21710  0.20330  Biso   1.000  O
  O5       1.0000 0.31780  0.57640  0.43810  Biso   1.000  O
  O6       1.0000 0.42440  0.70340  0.49510  Biso   1.000  O
  O7       1.0000 0.54980  0.34820  0.24550  Biso   1.000  O
  O8       1.0000 0.36310  0.30850  0.23570  Biso   1.000  O
  O9       1.0000 0.50020  0.25900  0.13010  Biso   1.000  O
  N1       1.0000 0.47190  0.30600  0.20100  Biso   1.000  N
  C1       1.0000 0.35440  0.35500  0.67920  Biso   1.000  C
  C2       1.0000 0.28900  0.29830  0.79860  Biso   1.000  C
  C3       1.0000 0.31150  0.34090  0.88470  Biso   1.000  C
  H1       1.0000 0.36880  0.40420  0.86970  Biso   1.000  H
  C4       1.0000 0.24840  0.28890  0.99350  Biso   1.000  C
  H2       1.0000 0.26300  0.31680  0.05100  Biso   1.000  H
  C5       1.0000 0.16290  0.19370  0.01300  Biso   1.000  C
  C6       1.0000 0.14120  0.14800  0.92890  Biso   1.000  C
  H3       1.0000 0.08550  0.08340  0.94440  Biso   1.000  H
  C7       1.0000 0.20440  0.20060  0.82210  Biso   1.000  C
  H4       1.0000 0.19070  0.17110  0.76530  Biso   1.000  H
  C8       1.0000 0.34760  0.68170  0.43840  Biso   1.000  C
  C9       1.0000 0.28190  0.79390  0.36380  Biso   1.000  C
  C10      1.0000 0.32420  0.91440  0.34060  Biso   1.000  C
  H5       1.0000 0.39340  0.92650  0.37030  Biso   1.000  H
  C11      1.0000 0.26400  0.01770  0.27310  Biso   1.000  C
  H6       1.0000 0.29250  0.09830  0.25720  Biso   1.000  H
  C12      1.0000 0.16010  0.99680  0.23020  Biso   1.000  C
  C13      1.0000 0.11690  0.87630  0.25090  Biso   1.000  C
  H7       1.0000 0.04830  0.86410  0.22040  Biso   1.000  H
  C14      1.0000 0.17870  0.77550  0.31770  Biso   1.000  C
  H8       1.0000 0.15120  0.69490  0.33210  Biso   1.000  H
  La2      1.0000 0.59711  0.60057  0.60274  Biso   1.000  La
  S2       1.0000 0.92158  0.87264  0.85093  Biso   1.000  S
  O10      1.0000 0.67910  0.68100  0.39550  Biso   1.000  O
  O11      1.0000 0.56140  0.56640  0.33480  Biso   1.000  O
  O12      1.0000 0.03480  0.92010  0.86700  Biso   1.000  O
  O13      1.0000 0.92250  0.78290  0.79670  Biso   1.000  O
  O14      1.0000 0.68220  0.42360  0.56190  Biso   1.000  O
  O15      1.0000 0.57560  0.29660  0.50490  Biso   1.000  O
  O16      1.0000 0.45020  0.65180  0.75450  Biso   1.000  O
  O17      1.0000 0.63690  0.69150  0.76430  Biso   1.000  O
  O18      1.0000 0.49980  0.74100  0.86990  Biso   1.000  O
  N2       1.0000 0.52810  0.69400  0.79900  Biso   1.000  N
  C15      1.0000 0.64560  0.64500  0.32080  Biso   1.000  C
  C16      1.0000 0.71100  0.70170  0.20140  Biso   1.000  C
  C17      1.0000 0.68850  0.65910  0.11530  Biso   1.000  C
  H9       1.0000 0.63120  0.59580  0.13030  Biso   1.000  H
  C18      1.0000 0.75160  0.71110  0.00650  Biso   1.000  C
  H10      1.0000 0.73700  0.68320  0.94900  Biso   1.000  H
  C19      1.0000 0.83710  0.80630  0.98700  Biso   1.000  C
  C20      1.0000 0.85880  0.85200  0.07110  Biso   1.000  C
  H11      1.0000 0.91450  0.91660  0.05560  Biso   1.000  H
  C21      1.0000 0.79560  0.79940  0.17790  Biso   1.000  C
  H12      1.0000 0.80930  0.82890  0.23470  Biso   1.000  H
  C22      1.0000 0.65240  0.31830  0.56160  Biso   1.000  C
  C23      1.0000 0.71810  0.20610  0.63620  Biso   1.000  C
  C24      1.0000 0.67580  0.08560  0.65940  Biso   1.000  C
  H13      1.0000 0.60660  0.07350  0.62970  Biso   1.000  H
  C25      1.0000 0.73600  0.98230  0.72690  Biso   1.000  C
  H14      1.0000 0.70750  0.90170  0.74280  Biso   1.000  H
  C26      1.0000 0.83990  0.00320  0.76980  Biso   1.000  C
  C27      1.0000 0.88310  0.12370  0.74910  Biso   1.000  C
  H15      1.0000 0.95170  0.13590  0.77960  Biso   1.000  H
  C28      1.0000 0.82130  0.22450  0.68230  Biso   1.000  C
  H16      1.0000 0.84880  0.30510  0.66790  Biso   1.000  H
