data_image0
_cell_length_a       9.6199
_cell_length_b       14.7172
_cell_length_c       18.3974
_cell_angle_alpha    90
_cell_angle_beta     90
_cell_angle_gamma    90

_symmetry_space_group_name_H-M    "P 1"
_symmetry_int_tables_number       1

loop_
  _symmetry_equiv_pos_as_xyz
  'x, y, z'

loop_
  _atom_site_label
  _atom_site_occupancy
  _atom_site_fract_x
  _atom_site_fract_y
  _atom_site_fract_z
  _atom_site_thermal_displace_type
  _atom_site_B_iso_or_equiv
  _atom_site_type_symbol
  N1       1.0000 0.98890  0.42770  0.16640  Biso   1.000  N
  C1       1.0000 0.87740  0.46140  0.13290  Biso   1.000  C
  H1       1.0000 0.79260  0.43210  0.13920  Biso   1.000  H
  C2       1.0000 0.88160  0.53650  0.09000  Biso   1.000  C
  H2       1.0000 0.80100  0.55690  0.06740  Biso   1.000  H
  C3       1.0000 0.00720  0.58330  0.07980  Biso   1.000  C
  C4       1.0000 0.12070  0.54470  0.11070  Biso   1.000  C
  H3       1.0000 0.20780  0.57060  0.10340  Biso   1.000  H
  C5       1.0000 0.10890  0.46840  0.15220  Biso   1.000  C
  H4       1.0000 0.18950  0.44340  0.17170  Biso   1.000  H
  C6       1.0000 0.01260  0.66860  0.03760  Biso   1.000  C
  C7       1.0000 0.12590  0.70980  0.01840  Biso   1.000  C
  H5       1.0000 0.21070  0.68350  0.03030  Biso   1.000  H
  C8       1.0000 0.89730  0.70810  0.01650  Biso   1.000  C
  H6       1.0000 0.81310  0.67860  0.02420  Biso   1.000  H
  N2       1.0000 0.98890  0.07230  0.83360  Biso   1.000  N
  C9       1.0000 0.87740  0.03860  0.86710  Biso   1.000  C
  H7       1.0000 0.79260  0.06790  0.86080  Biso   1.000  H
  C10      1.0000 0.88160  0.96350  0.91000  Biso   1.000  C
  H8       1.0000 0.80100  0.94310  0.93260  Biso   1.000  H
  C11      1.0000 0.00720  0.91670  0.92020  Biso   1.000  C
  C12      1.0000 0.12070  0.95530  0.88930  Biso   1.000  C
  H9       1.0000 0.20780  0.92940  0.89660  Biso   1.000  H
  C13      1.0000 0.10890  0.03160  0.84780  Biso   1.000  C
  H10      1.0000 0.18950  0.05660  0.82830  Biso   1.000  H
  C14      1.0000 0.01260  0.83140  0.96240  Biso   1.000  C
  C15      1.0000 0.12590  0.79020  0.98160  Biso   1.000  C
  H11      1.0000 0.21070  0.81650  0.96970  Biso   1.000  H
  C16      1.0000 0.89730  0.79190  0.98350  Biso   1.000  C
  H12      1.0000 0.81310  0.82140  0.97580  Biso   1.000  H
  N3       1.0000 0.98890  0.42770  0.33360  Biso   1.000  N
  C17      1.0000 0.87740  0.46140  0.36710  Biso   1.000  C
  H13      1.0000 0.79260  0.43210  0.36080  Biso   1.000  H
  C18      1.0000 0.88160  0.53650  0.41000  Biso   1.000  C
  H14      1.0000 0.80100  0.55690  0.43260  Biso   1.000  H
  C19      1.0000 0.00720  0.58330  0.42020  Biso   1.000  C
  C20      1.0000 0.12070  0.54470  0.38930  Biso   1.000  C
  H15      1.0000 0.20780  0.57060  0.39660  Biso   1.000  H
  C21      1.0000 0.10890  0.46840  0.34780  Biso   1.000  C
  H16      1.0000 0.18950  0.44340  0.32830  Biso   1.000  H
  C22      1.0000 0.01260  0.66860  0.46240  Biso   1.000  C
  C23      1.0000 0.12590  0.70980  0.48160  Biso   1.000  C
  H17      1.0000 0.21070  0.68350  0.46970  Biso   1.000  H
  C24      1.0000 0.89730  0.70810  0.48350  Biso   1.000  C
  H18      1.0000 0.81310  0.67860  0.47580  Biso   1.000  H
  N4       1.0000 0.98890  0.07230  0.66640  Biso   1.000  N
  C25      1.0000 0.87740  0.03860  0.63290  Biso   1.000  C
  H19      1.0000 0.79260  0.06790  0.63920  Biso   1.000  H
  C26      1.0000 0.88160  0.96350  0.59000  Biso   1.000  C
  H20      1.0000 0.80100  0.94310  0.56740  Biso   1.000  H
  C27      1.0000 0.00720  0.91670  0.57980  Biso   1.000  C
  C28      1.0000 0.12070  0.95530  0.61070  Biso   1.000  C
  H21      1.0000 0.20780  0.92940  0.60340  Biso   1.000  H
  C29      1.0000 0.10890  0.03160  0.65220  Biso   1.000  C
  H22      1.0000 0.18950  0.05660  0.67170  Biso   1.000  H
  C30      1.0000 0.01260  0.83140  0.53760  Biso   1.000  C
  C31      1.0000 0.12590  0.79020  0.51840  Biso   1.000  C
  H23      1.0000 0.21070  0.81650  0.53030  Biso   1.000  H
  C32      1.0000 0.89730  0.79190  0.51650  Biso   1.000  C
  H24      1.0000 0.81310  0.82140  0.52420  Biso   1.000  H
  Zn1      1.0000 0.98163  0.33414  0.25000  Biso   1.000  Zn
  O1       1.0000 0.82210  0.25650  0.25000  Biso   1.000  O
  O2       1.0000 0.67050  0.36900  0.25000  Biso   1.000  O
  O3       1.0000 0.16980  0.29140  0.25000  Biso   1.000  O
  O4       1.0000 0.10020  0.14990  0.25000  Biso   1.000  O
  O5       1.0000 0.55600  0.97260  0.25000  Biso   1.000  O
  H25      1.0000 0.47400  0.93540  0.25000  Biso   1.000  H
  C33      1.0000 0.69840  0.28740  0.25000  Biso   1.000  C
  C34      1.0000 0.58550  0.21780  0.25000  Biso   1.000  C
  C35      1.0000 0.61880  0.12590  0.25000  Biso   1.000  C
  H26      1.0000 0.71160  0.10820  0.25000  Biso   1.000  H
  C36      1.0000 0.51660  0.06120  0.25000  Biso   1.000  C
  C37      1.0000 0.37600  0.08740  0.25000  Biso   1.000  C
  H27      1.0000 0.30650  0.04340  0.25000  Biso   1.000  H
  C38      1.0000 0.34080  0.17960  0.25000  Biso   1.000  C
  C39      1.0000 0.44690  0.24440  0.25000  Biso   1.000  C
  H28      1.0000 0.42460  0.30590  0.25000  Biso   1.000  H
  C40      1.0000 0.19190  0.20710  0.25000  Biso   1.000  C
  Zn2      1.0000 0.98163  0.16586  0.75000  Biso   1.000  Zn
  O6       1.0000 0.82210  0.24350  0.75000  Biso   1.000  O
  O7       1.0000 0.67050  0.13100  0.75000  Biso   1.000  O
  O8       1.0000 0.16980  0.20860  0.75000  Biso   1.000  O
  O9       1.0000 0.10020  0.35010  0.75000  Biso   1.000  O
  O10      1.0000 0.55600  0.52740  0.75000  Biso   1.000  O
  H29      1.0000 0.47400  0.56460  0.75000  Biso   1.000  H
  C41      1.0000 0.69840  0.21260  0.75000  Biso   1.000  C
  C42      1.0000 0.58550  0.28220  0.75000  Biso   1.000  C
  C43      1.0000 0.61880  0.37410  0.75000  Biso   1.000  C
  H30      1.0000 0.71160  0.39180  0.75000  Biso   1.000  H
  C44      1.0000 0.51660  0.43880  0.75000  Biso   1.000  C
  C45      1.0000 0.37600  0.41260  0.75000  Biso   1.000  C
  H31      1.0000 0.30650  0.45660  0.75000  Biso   1.000  H
  C46      1.0000 0.34080  0.32040  0.75000  Biso   1.000  C
  C47      1.0000 0.44690  0.25560  0.75000  Biso   1.000  C
  H32      1.0000 0.42460  0.19410  0.75000  Biso   1.000  H
  C48      1.0000 0.19190  0.29290  0.75000  Biso   1.000  C
  N5       1.0000 0.01110  0.57230  0.66640  Biso   1.000  N
  C49      1.0000 0.12260  0.53860  0.63290  Biso   1.000  C
  H33      1.0000 0.20740  0.56790  0.63920  Biso   1.000  H
  C50      1.0000 0.11840  0.46350  0.59000  Biso   1.000  C
  H34      1.0000 0.19900  0.44310  0.56740  Biso   1.000  H
  C51      1.0000 0.99280  0.41670  0.57980  Biso   1.000  C
  C52      1.0000 0.87930  0.45530  0.61070  Biso   1.000  C
  H35      1.0000 0.79220  0.42940  0.60340  Biso   1.000  H
  C53      1.0000 0.89110  0.53160  0.65220  Biso   1.000  C
  H36      1.0000 0.81050  0.55660  0.67170  Biso   1.000  H
  C54      1.0000 0.98740  0.33140  0.53760  Biso   1.000  C
  C55      1.0000 0.87410  0.29020  0.51840  Biso   1.000  C
  H37      1.0000 0.78930  0.31650  0.53030  Biso   1.000  H
  C56      1.0000 0.10270  0.29190  0.51650  Biso   1.000  C
  H38      1.0000 0.18690  0.32140  0.52420  Biso   1.000  H
  N6       1.0000 0.01110  0.92770  0.33360  Biso   1.000  N
  C57      1.0000 0.12260  0.96140  0.36710  Biso   1.000  C
  H39      1.0000 0.20740  0.93210  0.36080  Biso   1.000  H
  C58      1.0000 0.11840  0.03650  0.41000  Biso   1.000  C
  H40      1.0000 0.19900  0.05690  0.43260  Biso   1.000  H
  C59      1.0000 0.99280  0.08330  0.42020  Biso   1.000  C
  C60      1.0000 0.87930  0.04470  0.38930  Biso   1.000  C
  H41      1.0000 0.79220  0.07060  0.39660  Biso   1.000  H
  C61      1.0000 0.89110  0.96840  0.34780  Biso   1.000  C
  H42      1.0000 0.81050  0.94340  0.32830  Biso   1.000  H
  C62      1.0000 0.98740  0.16860  0.46240  Biso   1.000  C
  C63      1.0000 0.87410  0.20980  0.48160  Biso   1.000  C
  H43      1.0000 0.78930  0.18350  0.46970  Biso   1.000  H
  C64      1.0000 0.10270  0.20810  0.48350  Biso   1.000  C
  H44      1.0000 0.18690  0.17860  0.47580  Biso   1.000  H
  N7       1.0000 0.01110  0.57230  0.83360  Biso   1.000  N
  C65      1.0000 0.12260  0.53860  0.86710  Biso   1.000  C
  H45      1.0000 0.20740  0.56790  0.86080  Biso   1.000  H
  C66      1.0000 0.11840  0.46350  0.91000  Biso   1.000  C
  H46      1.0000 0.19900  0.44310  0.93260  Biso   1.000  H
  C67      1.0000 0.99280  0.41670  0.92020  Biso   1.000  C
  C68      1.0000 0.87930  0.45530  0.88930  Biso   1.000  C
  H47      1.0000 0.79220  0.42940  0.89660  Biso   1.000  H
  C69      1.0000 0.89110  0.53160  0.84780  Biso   1.000  C
  H48      1.0000 0.81050  0.55660  0.82830  Biso   1.000  H
  C70      1.0000 0.98740  0.33140  0.96240  Biso   1.000  C
  C71      1.0000 0.87410  0.29020  0.98160  Biso   1.000  C
  H49      1.0000 0.78930  0.31650  0.96970  Biso   1.000  H
  C72      1.0000 0.10270  0.29190  0.98350  Biso   1.000  C
  H50      1.0000 0.18690  0.32140  0.97580  Biso   1.000  H
  N8       1.0000 0.01110  0.92770  0.16640  Biso   1.000  N
  C73      1.0000 0.12260  0.96140  0.13290  Biso   1.000  C
  H51      1.0000 0.20740  0.93210  0.13920  Biso   1.000  H
  C74      1.0000 0.11840  0.03650  0.09000  Biso   1.000  C
  H52      1.0000 0.19900  0.05690  0.06740  Biso   1.000  H
  C75      1.0000 0.99280  0.08330  0.07980  Biso   1.000  C
  C76      1.0000 0.87930  0.04470  0.11070  Biso   1.000  C
  H53      1.0000 0.79220  0.07060  0.10340  Biso   1.000  H
  C77      1.0000 0.89110  0.96840  0.15220  Biso   1.000  C
  H54      1.0000 0.81050  0.94340  0.17170  Biso   1.000  H
  C78      1.0000 0.98740  0.16860  0.03760  Biso   1.000  C
  C79      1.0000 0.87410  0.20980  0.01840  Biso   1.000  C
  H55      1.0000 0.78930  0.18350  0.03030  Biso   1.000  H
  C80      1.0000 0.10270  0.20810  0.01650  Biso   1.000  C
  H56      1.0000 0.18690  0.17860  0.02420  Biso   1.000  H
  Zn3      1.0000 0.01837  0.66586  0.75000  Biso   1.000  Zn
  O11      1.0000 0.17790  0.74350  0.75000  Biso   1.000  O
  O12      1.0000 0.32950  0.63100  0.75000  Biso   1.000  O
  O13      1.0000 0.83020  0.70860  0.75000  Biso   1.000  O
  O14      1.0000 0.89980  0.85010  0.75000  Biso   1.000  O
  O15      1.0000 0.44400  0.02740  0.75000  Biso   1.000  O
  H57      1.0000 0.52600  0.06460  0.75000  Biso   1.000  H
  C81      1.0000 0.30160  0.71260  0.75000  Biso   1.000  C
  C82      1.0000 0.41450  0.78220  0.75000  Biso   1.000  C
  C83      1.0000 0.38120  0.87410  0.75000  Biso   1.000  C
  H58      1.0000 0.28840  0.89180  0.75000  Biso   1.000  H
  C84      1.0000 0.48340  0.93880  0.75000  Biso   1.000  C
  C85      1.0000 0.62400  0.91260  0.75000  Biso   1.000  C
  H59      1.0000 0.69350  0.95660  0.75000  Biso   1.000  H
  C86      1.0000 0.65920  0.82040  0.75000  Biso   1.000  C
  C87      1.0000 0.55310  0.75560  0.75000  Biso   1.000  C
  H60      1.0000 0.57540  0.69410  0.75000  Biso   1.000  H
  C88      1.0000 0.80810  0.79290  0.75000  Biso   1.000  C
  Zn4      1.0000 0.01837  0.83414  0.25000  Biso   1.000  Zn
  O16      1.0000 0.17790  0.75650  0.25000  Biso   1.000  O
  O17      1.0000 0.32950  0.86900  0.25000  Biso   1.000  O
  O18      1.0000 0.83020  0.79140  0.25000  Biso   1.000  O
  O19      1.0000 0.89980  0.64990  0.25000  Biso   1.000  O
  O20      1.0000 0.44400  0.47260  0.25000  Biso   1.000  O
  H61      1.0000 0.52600  0.43540  0.25000  Biso   1.000  H
  C89      1.0000 0.30160  0.78740  0.25000  Biso   1.000  C
  C90      1.0000 0.41450  0.71780  0.25000  Biso   1.000  C
  C91      1.0000 0.38120  0.62590  0.25000  Biso   1.000  C
  H62      1.0000 0.28840  0.60820  0.25000  Biso   1.000  H
  C92      1.0000 0.48340  0.56120  0.25000  Biso   1.000  C
  C93      1.0000 0.62400  0.58740  0.25000  Biso   1.000  C
  H63      1.0000 0.69350  0.54340  0.25000  Biso   1.000  H
  C94      1.0000 0.65920  0.67960  0.25000  Biso   1.000  C
  C95      1.0000 0.55310  0.74440  0.25000  Biso   1.000  C
  H64      1.0000 0.57540  0.80590  0.25000  Biso   1.000  H
  C96      1.0000 0.80810  0.70710  0.25000  Biso   1.000  C
