data_image0
_cell_length_a       6.598
_cell_length_b       11.2888
_cell_length_c       12.4352
_cell_angle_alpha    66.96
_cell_angle_beta     78.305
_cell_angle_gamma    81.581

_symmetry_space_group_name_H-M    "P 1"
_symmetry_int_tables_number       1

loop_
  _symmetry_equiv_pos_as_xyz
  'x, y, z'

loop_
  _atom_site_label
  _atom_site_occupancy
  _atom_site_fract_x
  _atom_site_fract_y
  _atom_site_fract_z
  _atom_site_thermal_displace_type
  _atom_site_B_iso_or_equiv
  _atom_site_type_symbol
  Pb1      1.0000 0.23482  0.56296  0.56003  Biso   1.000  Pb
  O1       1.0000 0.40100  0.59980  0.33840  Biso   1.000  O
  O2       1.0000 0.05910  0.61500  0.39240  Biso   1.000  O
  O3       1.0000 0.58430  0.68600  0.49880  Biso   1.000  O
  O4       1.0000 0.27850  0.79190  0.46350  Biso   1.000  O
  C1       1.0000 0.35940  0.61780  0.11230  Biso   1.000  C
  H1       1.0000 0.48900  0.59030  0.13570  Biso   1.000  H
  C2       1.0000 0.18830  0.63910  0.19210  Biso   1.000  C
  C3       1.0000 0.47420  0.78730  0.45520  Biso   1.000  C
  C4       1.0000 0.89180  0.02280  0.29550  Biso   1.000  C
  H2       1.0000 0.03540  0.02100  0.27400  Biso   1.000  H
  C5       1.0000 0.46010  0.03080  0.35940  Biso   1.000  C
  H3       1.0000 0.31650  0.03300  0.38070  Biso   1.000  H
  C6       1.0000 0.77160  0.13910  0.26540  Biso   1.000  C
  C7       1.0000 0.55550  0.14360  0.29870  Biso   1.000  C
  H4       1.0000 0.47750  0.22250  0.27970  Biso   1.000  H
  C8       1.0000 0.96810  0.70270  0.04320  Biso   1.000  C
  H5       1.0000 0.83820  0.73040  0.02030  Biso   1.000  H
  C9       1.0000 0.99700  0.68150  0.15640  Biso   1.000  C
  H6       1.0000 0.88500  0.69610  0.20970  Biso   1.000  H
  C10      1.0000 0.79420  0.90920  0.35820  Biso   1.000  C
  H7       1.0000 0.87310  0.83060  0.37970  Biso   1.000  H
  C11      1.0000 0.22170  0.61780  0.31350  Biso   1.000  C
  C12      1.0000 0.33390  0.63800  0.99900  Biso   1.000  C
  H8       1.0000 0.44570  0.62270  0.94590  Biso   1.000  H
  C13      1.0000 0.57890  0.91190  0.38930  Biso   1.000  C
  C14      1.0000 0.13820  0.68180  0.96420  Biso   1.000  C
  S1       1.0000 0.11080  0.71449  0.81638  Biso   1.000  S
  O5       1.0000 0.23120  0.61530  0.78040  Biso   1.000  O
  O6       1.0000 0.89130  0.73650  0.80830  Biso   1.000  O
  Pb2      1.0000 0.76518  0.43704  0.43997  Biso   1.000  Pb
  O7       1.0000 0.59900  0.40020  0.66160  Biso   1.000  O
  O8       1.0000 0.94090  0.38500  0.60760  Biso   1.000  O
  O9       1.0000 0.41570  0.31400  0.50120  Biso   1.000  O
  O10      1.0000 0.72150  0.20810  0.53650  Biso   1.000  O
  C15      1.0000 0.64060  0.38220  0.88770  Biso   1.000  C
  H9       1.0000 0.51100  0.40970  0.86430  Biso   1.000  H
  C16      1.0000 0.81170  0.36090  0.80790  Biso   1.000  C
  C17      1.0000 0.52580  0.21270  0.54480  Biso   1.000  C
  C18      1.0000 0.10820  0.97720  0.70450  Biso   1.000  C
  H10      1.0000 0.96460  0.97900  0.72600  Biso   1.000  H
  C19      1.0000 0.53990  0.96920  0.64060  Biso   1.000  C
  H11      1.0000 0.68350  0.96700  0.61930  Biso   1.000  H
  C20      1.0000 0.22840  0.86090  0.73460  Biso   1.000  C
  C21      1.0000 0.44450  0.85640  0.70130  Biso   1.000  C
  H12      1.0000 0.52250  0.77750  0.72030  Biso   1.000  H
  C22      1.0000 0.03190  0.29730  0.95680  Biso   1.000  C
  H13      1.0000 0.16180  0.26960  0.97970  Biso   1.000  H
  C23      1.0000 0.00300  0.31850  0.84360  Biso   1.000  C
  H14      1.0000 0.11500  0.30390  0.79030  Biso   1.000  H
  C24      1.0000 0.20580  0.09080  0.64180  Biso   1.000  C
  H15      1.0000 0.12690  0.16940  0.62030  Biso   1.000  H
  C25      1.0000 0.77830  0.38220  0.68650  Biso   1.000  C
  C26      1.0000 0.66610  0.36200  0.00100  Biso   1.000  C
  H16      1.0000 0.55430  0.37730  0.05410  Biso   1.000  H
  C27      1.0000 0.42110  0.08810  0.61070  Biso   1.000  C
  C28      1.0000 0.86180  0.31820  0.03580  Biso   1.000  C
  S2       1.0000 0.88920  0.28551  0.18362  Biso   1.000  S
  O11      1.0000 0.76880  0.38470  0.21960  Biso   1.000  O
  O12      1.0000 0.10870  0.26350  0.19170  Biso   1.000  O
