data_image0
_cell_length_a       18.8827
_cell_length_b       9.8114
_cell_length_c       19.5013
_cell_angle_alpha    90
_cell_angle_beta     108.692
_cell_angle_gamma    90

_symmetry_space_group_name_H-M    "P 1"
_symmetry_int_tables_number       1

loop_
  _symmetry_equiv_pos_as_xyz
  'x, y, z'

loop_
  _atom_site_label
  _atom_site_occupancy
  _atom_site_fract_x
  _atom_site_fract_y
  _atom_site_fract_z
  _atom_site_thermal_displace_type
  _atom_site_B_iso_or_equiv
  _atom_site_type_symbol
  C1       1.0000 0.43398  0.27440  0.14011  Biso   1.000  C
  H1       1.0000 0.44910  0.30960  0.18800  Biso   1.000  H
  C2       1.0000 0.47452  0.16830  0.12459  Biso   1.000  C
  H2       1.0000 0.51620  0.13160  0.16140  Biso   1.000  H
  C3       1.0000 0.45411  0.11570  0.05486  Biso   1.000  C
  C4       1.0000 0.39287  0.17440  0.00412  Biso   1.000  C
  H3       1.0000 0.37700  0.14190  0.95570  Biso   1.000  H
  C5       1.0000 0.35465  0.27970  0.02344  Biso   1.000  C
  H4       1.0000 0.31280  0.31820  0.98760  Biso   1.000  H
  C6       1.0000 0.49713  0.99800  0.03772  Biso   1.000  C
  H5       1.0000 0.54820  0.99760  0.07310  Biso   1.000  H
  H6       1.0000 0.47250  0.91170  0.04380  Biso   1.000  H
  C7       1.0000 0.20978  0.60940  0.00620  Biso   1.000  C
  C8       1.0000 0.20017  0.67100  0.07411  Biso   1.000  C
  C9       1.0000 0.14903  0.77150  0.07411  Biso   1.000  C
  H7       1.0000 0.11530  0.80490  0.03000  Biso   1.000  H
  C10      1.0000 0.14804  0.82300  0.14035  Biso   1.000  C
  H8       1.0000 0.11340  0.89200  0.14210  Biso   1.000  H
  C11      1.0000 0.30178  0.27220  0.29645  Biso   1.000  C
  C12      1.0000 0.24756  0.66960  0.19895  Biso   1.000  C
  H9       1.0000 0.28170  0.63400  0.24230  Biso   1.000  H
  C13      1.0000 0.29658  0.32780  0.22294  Biso   1.000  C
  Cu1      1.0000 0.31738  0.47899  0.11862  Biso   1.000  Cu
  N1       1.0000 0.37438  0.32980  0.09090  Biso   1.000  N
  N2       1.0000 0.24837  0.62000  0.13555  Biso   1.000  N
  O1       1.0000 0.26143  0.52129  0.01666  Biso   1.000  O
  O2       1.0000 0.34504  0.41524  0.22069  Biso   1.000  O
  O3       1.0000 0.16810  0.64617  0.94596  Biso   1.000  O
  O4       1.0000 0.24484  0.28790  0.16894  Biso   1.000  O
  C14      1.0000 0.06602  0.77440  0.35989  Biso   1.000  C
  H10      1.0000 0.05090  0.80960  0.31200  Biso   1.000  H
  C15      1.0000 0.02548  0.66830  0.37541  Biso   1.000  C
  H11      1.0000 0.98380  0.63160  0.33860  Biso   1.000  H
  C16      1.0000 0.04589  0.61570  0.44514  Biso   1.000  C
  C17      1.0000 0.10713  0.67440  0.49588  Biso   1.000  C
  H12      1.0000 0.12300  0.64190  0.54430  Biso   1.000  H
  C18      1.0000 0.14535  0.77970  0.47656  Biso   1.000  C
  H13      1.0000 0.18720  0.81820  0.51240  Biso   1.000  H
  C19      1.0000 0.00287  0.49800  0.46228  Biso   1.000  C
  H14      1.0000 0.95180  0.49760  0.42690  Biso   1.000  H
  H15      1.0000 0.02750  0.41170  0.45620  Biso   1.000  H
  C20      1.0000 0.29022  0.10940  0.49380  Biso   1.000  C
  C21      1.0000 0.29983  0.17100  0.42589  Biso   1.000  C
  C22      1.0000 0.35097  0.27150  0.42589  Biso   1.000  C
  H16      1.0000 0.38470  0.30490  0.47000  Biso   1.000  H
  C23      1.0000 0.35196  0.32300  0.35965  Biso   1.000  C
  H17      1.0000 0.38660  0.39200  0.35790  Biso   1.000  H
  C24      1.0000 0.19822  0.77220  0.20355  Biso   1.000  C
  C25      1.0000 0.25244  0.16960  0.30105  Biso   1.000  C
  H18      1.0000 0.21830  0.13400  0.25770  Biso   1.000  H
  C26      1.0000 0.20342  0.82780  0.27706  Biso   1.000  C
  Cu2      1.0000 0.18262  0.97899  0.38138  Biso   1.000  Cu
  N3       1.0000 0.12562  0.82980  0.40910  Biso   1.000  N
  N4       1.0000 0.25163  0.12000  0.36445  Biso   1.000  N
  O5       1.0000 0.23857  0.02129  0.48334  Biso   1.000  O
  O6       1.0000 0.15496  0.91524  0.27931  Biso   1.000  O
  O7       1.0000 0.33190  0.14617  0.55404  Biso   1.000  O
  O8       1.0000 0.25516  0.78790  0.33106  Biso   1.000  O
  C27      1.0000 0.56602  0.72560  0.85989  Biso   1.000  C
  H19      1.0000 0.55090  0.69040  0.81200  Biso   1.000  H
  C28      1.0000 0.52548  0.83170  0.87541  Biso   1.000  C
  H20      1.0000 0.48380  0.86840  0.83860  Biso   1.000  H
  C29      1.0000 0.54589  0.88430  0.94514  Biso   1.000  C
  C30      1.0000 0.60713  0.82560  0.99588  Biso   1.000  C
  H21      1.0000 0.62300  0.85810  0.04430  Biso   1.000  H
  C31      1.0000 0.64535  0.72030  0.97656  Biso   1.000  C
  H22      1.0000 0.68720  0.68180  0.01240  Biso   1.000  H
  C32      1.0000 0.50287  0.00200  0.96228  Biso   1.000  C
  H23      1.0000 0.45180  0.00240  0.92690  Biso   1.000  H
  H24      1.0000 0.52750  0.08830  0.95620  Biso   1.000  H
  C33      1.0000 0.79022  0.39060  0.99380  Biso   1.000  C
  C34      1.0000 0.79983  0.32900  0.92589  Biso   1.000  C
  C35      1.0000 0.85097  0.22850  0.92589  Biso   1.000  C
  H25      1.0000 0.88470  0.19510  0.97000  Biso   1.000  H
  C36      1.0000 0.85196  0.17700  0.85965  Biso   1.000  C
  H26      1.0000 0.88660  0.10800  0.85790  Biso   1.000  H
  C37      1.0000 0.69822  0.72780  0.70355  Biso   1.000  C
  C38      1.0000 0.75244  0.33040  0.80105  Biso   1.000  C
  H27      1.0000 0.71830  0.36600  0.75770  Biso   1.000  H
  C39      1.0000 0.70342  0.67220  0.77706  Biso   1.000  C
  Cu3      1.0000 0.68262  0.52101  0.88138  Biso   1.000  Cu
  N5       1.0000 0.62562  0.67020  0.90910  Biso   1.000  N
  N6       1.0000 0.75163  0.38000  0.86445  Biso   1.000  N
  O9       1.0000 0.73857  0.47871  0.98334  Biso   1.000  O
  O10      1.0000 0.65496  0.58476  0.77931  Biso   1.000  O
  O11      1.0000 0.83190  0.35383  0.05404  Biso   1.000  O
  O12      1.0000 0.75516  0.71210  0.83106  Biso   1.000  O
  C40      1.0000 0.93398  0.22560  0.64011  Biso   1.000  C
  H28      1.0000 0.94910  0.19040  0.68800  Biso   1.000  H
  C41      1.0000 0.97452  0.33170  0.62459  Biso   1.000  C
  H29      1.0000 0.01620  0.36840  0.66140  Biso   1.000  H
  C42      1.0000 0.95411  0.38430  0.55486  Biso   1.000  C
  C43      1.0000 0.89287  0.32560  0.50412  Biso   1.000  C
  H30      1.0000 0.87700  0.35810  0.45570  Biso   1.000  H
  C44      1.0000 0.85465  0.22030  0.52344  Biso   1.000  C
  H31      1.0000 0.81280  0.18180  0.48760  Biso   1.000  H
  C45      1.0000 0.99713  0.50200  0.53772  Biso   1.000  C
  H32      1.0000 0.04820  0.50240  0.57310  Biso   1.000  H
  H33      1.0000 0.97250  0.58830  0.54380  Biso   1.000  H
  C46      1.0000 0.70978  0.89060  0.50620  Biso   1.000  C
  C47      1.0000 0.70017  0.82900  0.57411  Biso   1.000  C
  C48      1.0000 0.64903  0.72850  0.57411  Biso   1.000  C
  H34      1.0000 0.61530  0.69510  0.53000  Biso   1.000  H
  C49      1.0000 0.64804  0.67700  0.64035  Biso   1.000  C
  H35      1.0000 0.61340  0.60800  0.64210  Biso   1.000  H
  C50      1.0000 0.80178  0.22780  0.79645  Biso   1.000  C
  C51      1.0000 0.74756  0.83040  0.69895  Biso   1.000  C
  H36      1.0000 0.78170  0.86600  0.74230  Biso   1.000  H
  C52      1.0000 0.79658  0.17220  0.72294  Biso   1.000  C
  Cu4      1.0000 0.81738  0.02101  0.61862  Biso   1.000  Cu
  N7       1.0000 0.87438  0.17020  0.59090  Biso   1.000  N
  N8       1.0000 0.74837  0.88000  0.63555  Biso   1.000  N
  O13      1.0000 0.76143  0.97871  0.51666  Biso   1.000  O
  O14      1.0000 0.84504  0.08476  0.72069  Biso   1.000  O
  O15      1.0000 0.66810  0.85383  0.44596  Biso   1.000  O
  O16      1.0000 0.74484  0.21210  0.66894  Biso   1.000  O
  C53      1.0000 0.93398  0.77440  0.14011  Biso   1.000  C
  H37      1.0000 0.94910  0.80960  0.18800  Biso   1.000  H
  C54      1.0000 0.97452  0.66830  0.12459  Biso   1.000  C
  H38      1.0000 0.01620  0.63160  0.16140  Biso   1.000  H
  C55      1.0000 0.95411  0.61570  0.05486  Biso   1.000  C
  C56      1.0000 0.89287  0.67440  0.00412  Biso   1.000  C
  H39      1.0000 0.87700  0.64190  0.95570  Biso   1.000  H
  C57      1.0000 0.85465  0.77970  0.02344  Biso   1.000  C
  H40      1.0000 0.81280  0.81820  0.98760  Biso   1.000  H
  C58      1.0000 0.99713  0.49800  0.03772  Biso   1.000  C
  H41      1.0000 0.04820  0.49760  0.07310  Biso   1.000  H
  H42      1.0000 0.97250  0.41170  0.04380  Biso   1.000  H
  C59      1.0000 0.70978  0.10940  0.00620  Biso   1.000  C
  C60      1.0000 0.70017  0.17100  0.07411  Biso   1.000  C
  C61      1.0000 0.64903  0.27150  0.07411  Biso   1.000  C
  H43      1.0000 0.61530  0.30490  0.03000  Biso   1.000  H
  C62      1.0000 0.64804  0.32300  0.14035  Biso   1.000  C
  H44      1.0000 0.61340  0.39200  0.14210  Biso   1.000  H
  C63      1.0000 0.80178  0.77220  0.29645  Biso   1.000  C
  C64      1.0000 0.74756  0.16960  0.19895  Biso   1.000  C
  H45      1.0000 0.78170  0.13400  0.24230  Biso   1.000  H
  C65      1.0000 0.79658  0.82780  0.22294  Biso   1.000  C
  Cu5      1.0000 0.81738  0.97899  0.11862  Biso   1.000  Cu
  N9       1.0000 0.87438  0.82980  0.09090  Biso   1.000  N
  N10      1.0000 0.74837  0.12000  0.13555  Biso   1.000  N
  O17      1.0000 0.76143  0.02129  0.01666  Biso   1.000  O
  O18      1.0000 0.84504  0.91524  0.22069  Biso   1.000  O
  O19      1.0000 0.66810  0.14617  0.94596  Biso   1.000  O
  O20      1.0000 0.74484  0.78790  0.16894  Biso   1.000  O
  C66      1.0000 0.56602  0.27440  0.35989  Biso   1.000  C
  H46      1.0000 0.55090  0.30960  0.31200  Biso   1.000  H
  C67      1.0000 0.52548  0.16830  0.37541  Biso   1.000  C
  H47      1.0000 0.48380  0.13160  0.33860  Biso   1.000  H
  C68      1.0000 0.54589  0.11570  0.44514  Biso   1.000  C
  C69      1.0000 0.60713  0.17440  0.49588  Biso   1.000  C
  H48      1.0000 0.62300  0.14190  0.54430  Biso   1.000  H
  C70      1.0000 0.64535  0.27970  0.47656  Biso   1.000  C
  H49      1.0000 0.68720  0.31820  0.51240  Biso   1.000  H
  C71      1.0000 0.50287  0.99800  0.46228  Biso   1.000  C
  H50      1.0000 0.45180  0.99760  0.42690  Biso   1.000  H
  H51      1.0000 0.52750  0.91170  0.45620  Biso   1.000  H
  C72      1.0000 0.79022  0.60940  0.49380  Biso   1.000  C
  C73      1.0000 0.79983  0.67100  0.42589  Biso   1.000  C
  C74      1.0000 0.85097  0.77150  0.42589  Biso   1.000  C
  H52      1.0000 0.88470  0.80490  0.47000  Biso   1.000  H
  C75      1.0000 0.85196  0.82300  0.35965  Biso   1.000  C
  H53      1.0000 0.88660  0.89200  0.35790  Biso   1.000  H
  C76      1.0000 0.69822  0.27220  0.20355  Biso   1.000  C
  C77      1.0000 0.75244  0.66960  0.30105  Biso   1.000  C
  H54      1.0000 0.71830  0.63400  0.25770  Biso   1.000  H
  C78      1.0000 0.70342  0.32780  0.27706  Biso   1.000  C
  Cu6      1.0000 0.68262  0.47899  0.38138  Biso   1.000  Cu
  N11      1.0000 0.62562  0.32980  0.40910  Biso   1.000  N
  N12      1.0000 0.75163  0.62000  0.36445  Biso   1.000  N
  O21      1.0000 0.73857  0.52129  0.48334  Biso   1.000  O
  O22      1.0000 0.65496  0.41524  0.27931  Biso   1.000  O
  O23      1.0000 0.83190  0.64617  0.55404  Biso   1.000  O
  O24      1.0000 0.75516  0.28790  0.33106  Biso   1.000  O
  C79      1.0000 0.06602  0.22560  0.85989  Biso   1.000  C
  H55      1.0000 0.05090  0.19040  0.81200  Biso   1.000  H
  C80      1.0000 0.02548  0.33170  0.87541  Biso   1.000  C
  H56      1.0000 0.98380  0.36840  0.83860  Biso   1.000  H
  C81      1.0000 0.04589  0.38430  0.94514  Biso   1.000  C
  C82      1.0000 0.10713  0.32560  0.99588  Biso   1.000  C
  H57      1.0000 0.12300  0.35810  0.04430  Biso   1.000  H
  C83      1.0000 0.14535  0.22030  0.97656  Biso   1.000  C
  H58      1.0000 0.18720  0.18180  0.01240  Biso   1.000  H
  C84      1.0000 0.00287  0.50200  0.96228  Biso   1.000  C
  H59      1.0000 0.95180  0.50240  0.92690  Biso   1.000  H
  H60      1.0000 0.02750  0.58830  0.95620  Biso   1.000  H
  C85      1.0000 0.29022  0.89060  0.99380  Biso   1.000  C
  C86      1.0000 0.29983  0.82900  0.92589  Biso   1.000  C
  C87      1.0000 0.35097  0.72850  0.92589  Biso   1.000  C
  H61      1.0000 0.38470  0.69510  0.97000  Biso   1.000  H
  C88      1.0000 0.35196  0.67700  0.85965  Biso   1.000  C
  H62      1.0000 0.38660  0.60800  0.85790  Biso   1.000  H
  C89      1.0000 0.19822  0.22780  0.70355  Biso   1.000  C
  C90      1.0000 0.25244  0.83040  0.80105  Biso   1.000  C
  H63      1.0000 0.21830  0.86600  0.75770  Biso   1.000  H
  C91      1.0000 0.20342  0.17220  0.77706  Biso   1.000  C
  Cu7      1.0000 0.18262  0.02101  0.88138  Biso   1.000  Cu
  N13      1.0000 0.12562  0.17020  0.90910  Biso   1.000  N
  N14      1.0000 0.25163  0.88000  0.86445  Biso   1.000  N
  O25      1.0000 0.23857  0.97871  0.98334  Biso   1.000  O
  O26      1.0000 0.15496  0.08476  0.77931  Biso   1.000  O
  O27      1.0000 0.33190  0.85383  0.05404  Biso   1.000  O
  O28      1.0000 0.25516  0.21210  0.83106  Biso   1.000  O
  C92      1.0000 0.43398  0.72560  0.64011  Biso   1.000  C
  H64      1.0000 0.44910  0.69040  0.68800  Biso   1.000  H
  C93      1.0000 0.47452  0.83170  0.62459  Biso   1.000  C
  H65      1.0000 0.51620  0.86840  0.66140  Biso   1.000  H
  C94      1.0000 0.45411  0.88430  0.55486  Biso   1.000  C
  C95      1.0000 0.39287  0.82560  0.50412  Biso   1.000  C
  H66      1.0000 0.37700  0.85810  0.45570  Biso   1.000  H
  C96      1.0000 0.35465  0.72030  0.52344  Biso   1.000  C
  H67      1.0000 0.31280  0.68180  0.48760  Biso   1.000  H
  C97      1.0000 0.49713  0.00200  0.53772  Biso   1.000  C
  H68      1.0000 0.54820  0.00240  0.57310  Biso   1.000  H
  H69      1.0000 0.47250  0.08830  0.54380  Biso   1.000  H
  C98      1.0000 0.20978  0.39060  0.50620  Biso   1.000  C
  C99      1.0000 0.20017  0.32900  0.57411  Biso   1.000  C
  C100     1.0000 0.14903  0.22850  0.57411  Biso   1.000  C
  H70      1.0000 0.11530  0.19510  0.53000  Biso   1.000  H
  C101     1.0000 0.14804  0.17700  0.64035  Biso   1.000  C
  H71      1.0000 0.11340  0.10800  0.64210  Biso   1.000  H
  C102     1.0000 0.30178  0.72780  0.79645  Biso   1.000  C
  C103     1.0000 0.24756  0.33040  0.69895  Biso   1.000  C
  H72      1.0000 0.28170  0.36600  0.74230  Biso   1.000  H
  C104     1.0000 0.29658  0.67220  0.72294  Biso   1.000  C
  Cu8      1.0000 0.31738  0.52101  0.61862  Biso   1.000  Cu
  N15      1.0000 0.37438  0.67020  0.59090  Biso   1.000  N
  N16      1.0000 0.24837  0.38000  0.63555  Biso   1.000  N
  O29      1.0000 0.26143  0.47871  0.51666  Biso   1.000  O
  O30      1.0000 0.34504  0.58476  0.72069  Biso   1.000  O
  O31      1.0000 0.16810  0.35383  0.44596  Biso   1.000  O
  O32      1.0000 0.24484  0.71210  0.66894  Biso   1.000  O
