data_image0
_cell_length_a       7.499
_cell_length_b       10.9055
_cell_length_c       11.4538
_cell_angle_alpha    111.761
_cell_angle_beta     99.506
_cell_angle_gamma    100.499

_symmetry_space_group_name_H-M    "P 1"
_symmetry_int_tables_number       1

loop_
  _symmetry_equiv_pos_as_xyz
  'x, y, z'

loop_
  _atom_site_label
  _atom_site_occupancy
  _atom_site_fract_x
  _atom_site_fract_y
  _atom_site_fract_z
  _atom_site_thermal_displace_type
  _atom_site_B_iso_or_equiv
  _atom_site_type_symbol
  Tb1      1.0000 0.66327  0.75690  0.66504  Biso   1.000  Tb
  N1       1.0000 0.11320  0.37340  0.83610  Biso   1.000  N
  N2       1.0000 0.04460  0.33560  0.70900  Biso   1.000  N
  N3       1.0000 0.08600  0.44140  0.68230  Biso   1.000  N
  N4       1.0000 0.18190  0.55230  0.79080  Biso   1.000  N
  O1       1.0000 0.49380  0.64710  0.45880  Biso   1.000  O
  O2       1.0000 0.41160  0.43960  0.29890  Biso   1.000  O
  O3       1.0000 0.47490  0.05600  0.35740  Biso   1.000  O
  O4       1.0000 0.28770  0.00880  0.16960  Biso   1.000  O
  C1       1.0000 0.43990  0.56650  0.34100  Biso   1.000  C
  C2       1.0000 0.40320  0.62680  0.24380  Biso   1.000  C
  C3       1.0000 0.43310  0.76830  0.28670  Biso   1.000  C
  H1       1.0000 0.48700  0.81800  0.36800  Biso   1.000  H
  C4       1.0000 0.38140  0.82260  0.19830  Biso   1.000  C
  C5       1.0000 0.38540  0.97080  0.24460  Biso   1.000  C
  C6       1.0000 0.30820  0.73670  0.06750  Biso   1.000  C
  H2       1.0000 0.27000  0.77100  0.00600  Biso   1.000  H
  C7       1.0000 0.28260  0.59550  0.02260  Biso   1.000  C
  C8       1.0000 0.32980  0.54160  0.11270  Biso   1.000  C
  H3       1.0000 0.30800  0.45200  0.08500  Biso   1.000  H
  C9       1.0000 0.19540  0.50740  0.88510  Biso   1.000  C
  Tb2      1.0000 0.33673  0.24310  0.33496  Biso   1.000  Tb
  N5       1.0000 0.88680  0.62660  0.16390  Biso   1.000  N
  N6       1.0000 0.95540  0.66440  0.29100  Biso   1.000  N
  N7       1.0000 0.91400  0.55860  0.31770  Biso   1.000  N
  N8       1.0000 0.81810  0.44770  0.20920  Biso   1.000  N
  O5       1.0000 0.50620  0.35290  0.54120  Biso   1.000  O
  O6       1.0000 0.58840  0.56040  0.70110  Biso   1.000  O
  O7       1.0000 0.52510  0.94400  0.64260  Biso   1.000  O
  O8       1.0000 0.71230  0.99120  0.83040  Biso   1.000  O
  C10      1.0000 0.56010  0.43350  0.65900  Biso   1.000  C
  C11      1.0000 0.59680  0.37320  0.75620  Biso   1.000  C
  C12      1.0000 0.56690  0.23170  0.71330  Biso   1.000  C
  H4       1.0000 0.51300  0.18200  0.63200  Biso   1.000  H
  C13      1.0000 0.61860  0.17740  0.80170  Biso   1.000  C
  C14      1.0000 0.61460  0.02920  0.75540  Biso   1.000  C
  C15      1.0000 0.69180  0.26330  0.93250  Biso   1.000  C
  H5       1.0000 0.73000  0.22900  0.99400  Biso   1.000  H
  C16      1.0000 0.71740  0.40450  0.97740  Biso   1.000  C
  C17      1.0000 0.67020  0.45840  0.88730  Biso   1.000  C
  H6       1.0000 0.69200  0.54800  0.91500  Biso   1.000  H
  C18      1.0000 0.80460  0.49260  0.11490  Biso   1.000  C
