data_image0
_cell_length_a       10.5072
_cell_length_b       13.2728
_cell_length_c       14.6621
_cell_angle_alpha    107.101
_cell_angle_beta     93.723
_cell_angle_gamma    102.07

_symmetry_space_group_name_H-M    "P 1"
_symmetry_int_tables_number       1

loop_
  _symmetry_equiv_pos_as_xyz
  'x, y, z'

loop_
  _atom_site_label
  _atom_site_occupancy
  _atom_site_fract_x
  _atom_site_fract_y
  _atom_site_fract_z
  _atom_site_thermal_displace_type
  _atom_site_B_iso_or_equiv
  _atom_site_type_symbol
  Tb1      1.0000 0.81170  0.24381  0.48337  Biso   1.000  Tb
  Tb2      1.0000 0.19220  0.25477  0.51499  Biso   1.000  Tb
  Tb3      1.0000 0.54365  0.20281  0.86561  Biso   1.000  Tb
  Tb4      1.0000 0.45770  0.29740  0.13496  Biso   1.000  Tb
  O1       1.0000 0.84700  0.31320  0.66950  Biso   1.000  O
  O2       1.0000 0.98320  0.18800  0.40780  Biso   1.000  O
  O3       1.0000 0.01900  0.31260  0.59370  Biso   1.000  O
  O4       1.0000 0.15300  0.18550  0.32820  Biso   1.000  O
  O5       1.0000 0.22200  0.23330  0.05330  Biso   1.000  O
  O6       1.0000 0.77900  0.26500  0.94530  Biso   1.000  O
  O7       1.0000 0.62340  0.27410  0.03860  Biso   1.000  O
  O8       1.0000 0.82100  0.10090  0.54510  Biso   1.000  O
  O9       1.0000 0.38800  0.24230  0.77060  Biso   1.000  O
  O10      1.0000 0.23300  0.19750  0.64420  Biso   1.000  O
  O11      1.0000 0.77000  0.29650  0.35290  Biso   1.000  O
  O12      1.0000 0.61700  0.25700  0.22880  Biso   1.000  O
  O13      1.0000 0.29500  0.41100  0.63960  Biso   1.000  O
  O14      1.0000 0.16000  0.06210  0.45620  Biso   1.000  O
  O15      1.0000 0.84100  0.43500  0.54250  Biso   1.000  O
  O16      1.0000 0.40000  0.53750  0.77790  Biso   1.000  O
  O17      1.0000 0.05100  0.39000  0.19590  Biso   1.000  O
  O18      1.0000 0.60100  0.96300  0.22180  Biso   1.000  O
  O19      1.0000 0.89100  0.07200  0.07580  Biso   1.000  O
  O20      1.0000 0.95100  0.11220  0.80330  Biso   1.000  O
  O21      1.0000 0.70900  0.08030  0.35600  Biso   1.000  O
  O22      1.0000 0.37800  0.22800  0.96140  Biso   1.000  O
  O23      1.0000 0.11200  0.42890  0.92520  Biso   1.000  O
  C1       1.0000 0.30300  0.46400  0.72870  Biso   1.000  C
  C2       1.0000 0.16200  0.17200  0.78200  Biso   1.000  C
  C3       1.0000 0.84100  0.32800  0.21400  Biso   1.000  C
  C4       1.0000 0.74500  0.28600  0.02800  Biso   1.000  C
  C5       1.0000 0.25300  0.21600  0.97000  Biso   1.000  C
  C6       1.0000 0.15400  0.18000  0.88500  Biso   1.000  C
  C7       1.0000 0.73200  0.29000  0.26700  Biso   1.000  C
  C8       1.0000 0.05600  0.38300  0.76400  Biso   1.000  C
  C9       1.0000 0.84800  0.31800  0.11300  Biso   1.000  C
  C10      1.0000 0.03200  0.16300  0.32600  Biso   1.000  C
  C11      1.0000 0.96900  0.33200  0.67000  Biso   1.000  C
  C12      1.0000 0.94400  0.11500  0.23400  Biso   1.000  C
  C13      1.0000 0.02300  0.14300  0.89100  Biso   1.000  C
  C14      1.0000 0.19900  0.43200  0.78900  Biso   1.000  C
  C15      1.0000 0.96600  0.36900  0.25900  Biso   1.000  C
  C16      1.0000 0.97700  0.35600  0.10600  Biso   1.000  C
  C17      1.0000 0.80600  0.06800  0.21200  Biso   1.000  C
  C18      1.0000 0.22100  0.45700  0.88700  Biso   1.000  C
  C19      1.0000 0.77800  0.04300  0.11700  Biso   1.000  C
  C20      1.0000 0.03500  0.12800  0.73900  Biso   1.000  C
  O24      1.0000 0.38900  0.11300  0.11100  Biso   1.000  O
  C21      1.0000 0.01100  0.38400  0.85000  Biso   1.000  C
  C22      1.0000 0.99100  0.11400  0.15000  Biso   1.000  C
  O25      1.0000 0.61500  0.38800  0.88200  Biso   1.000  O
  O26      1.0000 0.38700  0.44100  0.10200  Biso   1.000  O
  C23      1.0000 0.26900  0.20600  0.73100  Biso   1.000  C
  C24      1.0000 0.69900  0.03900  0.26400  Biso   1.000  C
  C25      1.0000 0.59400  0.46800  0.88400  Biso   1.000  C
  C26      1.0000 0.40700  0.03400  0.11600  Biso   1.000  C
  O27      1.0000 0.61500  0.05800  0.89800  Biso   1.000  O
  O28      1.0000 0.70000  0.49000  0.05000  Biso   1.000  O
  O29      1.0000 0.17700  0.39840  0.45450  Biso   1.000  O
  O30      1.0000 0.83300  0.50700  0.50470  Biso   1.000  O
  O31      1.0000 0.20700  0.00600  0.49000  Biso   1.000  O
  Tb5      1.0000 0.18830  0.75619  0.51663  Biso   1.000  Tb
  Tb6      1.0000 0.80780  0.74523  0.48501  Biso   1.000  Tb
  Tb7      1.0000 0.45635  0.79719  0.13439  Biso   1.000  Tb
  Tb8      1.0000 0.54230  0.70260  0.86504  Biso   1.000  Tb
  O32      1.0000 0.15300  0.68680  0.33050  Biso   1.000  O
  O33      1.0000 0.01680  0.81200  0.59220  Biso   1.000  O
  O34      1.0000 0.98100  0.68740  0.40630  Biso   1.000  O
  O35      1.0000 0.84700  0.81450  0.67180  Biso   1.000  O
  O36      1.0000 0.77800  0.76670  0.94670  Biso   1.000  O
  O37      1.0000 0.22100  0.73500  0.05470  Biso   1.000  O
  O38      1.0000 0.37660  0.72590  0.96140  Biso   1.000  O
  O39      1.0000 0.17900  0.89910  0.45490  Biso   1.000  O
  O40      1.0000 0.61200  0.75770  0.22940  Biso   1.000  O
  O41      1.0000 0.76700  0.80250  0.35580  Biso   1.000  O
  O42      1.0000 0.23000  0.70350  0.64710  Biso   1.000  O
  O43      1.0000 0.38300  0.74300  0.77120  Biso   1.000  O
  O44      1.0000 0.70500  0.58900  0.36040  Biso   1.000  O
  O45      1.0000 0.84000  0.93790  0.54380  Biso   1.000  O
  O46      1.0000 0.15900  0.56500  0.45750  Biso   1.000  O
  O47      1.0000 0.60000  0.46250  0.22210  Biso   1.000  O
  O48      1.0000 0.94900  0.61000  0.80410  Biso   1.000  O
  O49      1.0000 0.39900  0.03700  0.77820  Biso   1.000  O
  O50      1.0000 0.10900  0.92800  0.92420  Biso   1.000  O
  O51      1.0000 0.04900  0.88780  0.19670  Biso   1.000  O
  O52      1.0000 0.29100  0.91970  0.64400  Biso   1.000  O
  O53      1.0000 0.62200  0.77200  0.03860  Biso   1.000  O
  O54      1.0000 0.88800  0.57110  0.07480  Biso   1.000  O
  C27      1.0000 0.69700  0.53600  0.27130  Biso   1.000  C
  C28      1.0000 0.83800  0.82800  0.21800  Biso   1.000  C
  C29      1.0000 0.15900  0.67200  0.78600  Biso   1.000  C
  C30      1.0000 0.25500  0.71400  0.97200  Biso   1.000  C
  C31      1.0000 0.74700  0.78400  0.03000  Biso   1.000  C
  C32      1.0000 0.84600  0.82000  0.11500  Biso   1.000  C
  C33      1.0000 0.26800  0.71000  0.73300  Biso   1.000  C
  C34      1.0000 0.94400  0.61700  0.23600  Biso   1.000  C
  C35      1.0000 0.15200  0.68200  0.88700  Biso   1.000  C
  C36      1.0000 0.96800  0.83700  0.67400  Biso   1.000  C
  C37      1.0000 0.03100  0.66800  0.33000  Biso   1.000  C
  C38      1.0000 0.05600  0.88500  0.76600  Biso   1.000  C
  C39      1.0000 0.97700  0.85700  0.10900  Biso   1.000  C
  C40      1.0000 0.80100  0.56800  0.21100  Biso   1.000  C
  C41      1.0000 0.03400  0.63100  0.74100  Biso   1.000  C
  C42      1.0000 0.02300  0.64400  0.89400  Biso   1.000  C
  C43      1.0000 0.19400  0.93200  0.78800  Biso   1.000  C
  C44      1.0000 0.77900  0.54300  0.11300  Biso   1.000  C
  C45      1.0000 0.22200  0.95700  0.88300  Biso   1.000  C
  C46      1.0000 0.96500  0.87200  0.26100  Biso   1.000  C
  O55      1.0000 0.61100  0.88700  0.88900  Biso   1.000  O
  C47      1.0000 0.98900  0.61600  0.15000  Biso   1.000  C
  C48      1.0000 0.00900  0.88600  0.85000  Biso   1.000  C
  O56      1.0000 0.38500  0.61200  0.11800  Biso   1.000  O
  O57      1.0000 0.61300  0.55900  0.89800  Biso   1.000  O
  C49      1.0000 0.73100  0.79400  0.26900  Biso   1.000  C
  C50      1.0000 0.30100  0.96100  0.73600  Biso   1.000  C
  C51      1.0000 0.40600  0.53200  0.11600  Biso   1.000  C
  C52      1.0000 0.59300  0.96600  0.88400  Biso   1.000  C
  O58      1.0000 0.38500  0.94200  0.10200  Biso   1.000  O
  O59      1.0000 0.30000  0.51000  0.95000  Biso   1.000  O
  O60      1.0000 0.82300  0.60160  0.54550  Biso   1.000  O
  O61      1.0000 0.16700  0.49300  0.49530  Biso   1.000  O
  O62      1.0000 0.79300  0.99400  0.51000  Biso   1.000  O
