data_image0
_cell_length_a       11.1182
_cell_length_b       11.2423
_cell_length_c       11.6976
_cell_angle_alpha    65.31
_cell_angle_beta     74.889
_cell_angle_gamma    72.067

_symmetry_space_group_name_H-M    "P 1"
_symmetry_int_tables_number       1

loop_
  _symmetry_equiv_pos_as_xyz
  'x, y, z'

loop_
  _atom_site_label
  _atom_site_occupancy
  _atom_site_fract_x
  _atom_site_fract_y
  _atom_site_fract_z
  _atom_site_thermal_displace_type
  _atom_site_B_iso_or_equiv
  _atom_site_type_symbol
  Zn1      1.0000 0.76391  0.97346  0.45231  Biso   1.000  Zn
  S1       1.0000 0.68466  0.27267  0.83280  Biso   1.000  S
  S2       1.0000 0.57017  0.40151  0.70093  Biso   1.000  S
  O1       1.0000 0.67330  0.03920  0.58990  Biso   1.000  O
  O2       1.0000 0.83840  0.88930  0.67580  Biso   1.000  O
  C1       1.0000 0.72760  0.90650  0.92000  Biso   1.000  C
  H1       1.0000 0.81560  0.86330  0.91010  Biso   1.000  H
  C2       1.0000 0.66260  0.97020  0.81340  Biso   1.000  C
  C3       1.0000 0.66450  0.90640  0.03770  Biso   1.000  C
  H2       1.0000 0.70920  0.86490  0.10870  Biso   1.000  H
  C4       1.0000 0.73260  0.96430  0.68650  Biso   1.000  C
  C5       1.0000 0.53250  0.96840  0.05280  Biso   1.000  C
  C6       1.0000 0.53690  0.03280  0.82590  Biso   1.000  C
  H3       1.0000 0.49480  0.07790  0.75310  Biso   1.000  H
  N1       1.0000 0.94620  0.91210  0.37230  Biso   1.000  N
  C7       1.0000 0.04520  0.83780  0.43580  Biso   1.000  C
  H4       1.0000 0.03580  0.82640  0.52260  Biso   1.000  H
  C8       1.0000 0.15910  0.77770  0.38180  Biso   1.000  C
  H5       1.0000 0.22610  0.72480  0.43080  Biso   1.000  H
  C9       1.0000 0.96350  0.92960  0.24900  Biso   1.000  C
  H6       1.0000 0.89470  0.98250  0.20230  Biso   1.000  H
  C10      1.0000 0.62820  0.55070  0.63550  Biso   1.000  C
  C11      1.0000 0.59560  0.78340  0.50840  Biso   1.000  C
  H7       1.0000 0.54330  0.86250  0.45750  Biso   1.000  H
  C12      1.0000 0.77870  0.67670  0.59890  Biso   1.000  C
  H8       1.0000 0.85820  0.67970  0.61250  Biso   1.000  H
  C13      1.0000 0.55310  0.66720  0.56120  Biso   1.000  C
  H9       1.0000 0.47310  0.66620  0.54710  Biso   1.000  H
  C14      1.0000 0.74270  0.55720  0.65480  Biso   1.000  C
  H10      1.0000 0.79570  0.47950  0.70640  Biso   1.000  H
  N2       1.0000 0.70780  0.79140  0.52500  Biso   1.000  N
  O3       1.0000 0.65920  0.07650  0.31240  Biso   1.000  O
  O4       1.0000 0.77120  0.21330  0.30350  Biso   1.000  O
  C15      1.0000 0.61250  0.30090  0.16540  Biso   1.000  C
  C16      1.0000 0.68780  0.19140  0.26490  Biso   1.000  C
  C17      1.0000 0.55290  0.52170  0.00030  Biso   1.000  C
  C18      1.0000 0.64620  0.41650  0.09560  Biso   1.000  C
  H11      1.0000 0.72150  0.43450  0.10270  Biso   1.000  H
  C19      1.0000 0.50000  0.27630  0.14970  Biso   1.000  C
  H12      1.0000 0.48150  0.19090  0.20140  Biso   1.000  H
  C20      1.0000 0.82450  0.20510  0.74500  Biso   1.000  C
  C21      1.0000 0.92530  0.12470  0.81320  Biso   1.000  C
  H13      1.0000 0.91680  0.10810  0.90120  Biso   1.000  H
  C22      1.0000 0.58340  0.63560  0.93290  Biso   1.000  C
  H14      1.0000 0.65710  0.65660  0.93980  Biso   1.000  H
  Zn2      1.0000 0.23609  0.02654  0.54769  Biso   1.000  Zn
  S3       1.0000 0.31534  0.72733  0.16720  Biso   1.000  S
  S4       1.0000 0.42983  0.59849  0.29907  Biso   1.000  S
  O5       1.0000 0.32670  0.96080  0.41010  Biso   1.000  O
  O6       1.0000 0.16160  0.11070  0.32420  Biso   1.000  O
  C23      1.0000 0.27240  0.09350  0.08000  Biso   1.000  C
  H15      1.0000 0.18440  0.13670  0.08990  Biso   1.000  H
  C24      1.0000 0.33740  0.02980  0.18660  Biso   1.000  C
  C25      1.0000 0.33550  0.09360  0.96230  Biso   1.000  C
  H16      1.0000 0.29080  0.13510  0.89130  Biso   1.000  H
  C26      1.0000 0.26740  0.03570  0.31350  Biso   1.000  C
  C27      1.0000 0.46750  0.03160  0.94720  Biso   1.000  C
  C28      1.0000 0.46310  0.96720  0.17410  Biso   1.000  C
  H17      1.0000 0.50520  0.92210  0.24690  Biso   1.000  H
  N3       1.0000 0.05380  0.08790  0.62770  Biso   1.000  N
  C29      1.0000 0.95480  0.16220  0.56420  Biso   1.000  C
  H18      1.0000 0.96420  0.17360  0.47740  Biso   1.000  H
  C30      1.0000 0.84090  0.22230  0.61820  Biso   1.000  C
  H19      1.0000 0.77390  0.27520  0.56920  Biso   1.000  H
  C31      1.0000 0.03650  0.07040  0.75100  Biso   1.000  C
  H20      1.0000 0.10530  0.01750  0.79770  Biso   1.000  H
  C32      1.0000 0.37180  0.44930  0.36450  Biso   1.000  C
  C33      1.0000 0.40440  0.21660  0.49160  Biso   1.000  C
  H21      1.0000 0.45670  0.13750  0.54250  Biso   1.000  H
  C34      1.0000 0.22130  0.32330  0.40110  Biso   1.000  C
  H22      1.0000 0.14180  0.32030  0.38750  Biso   1.000  H
  C35      1.0000 0.44690  0.33280  0.43880  Biso   1.000  C
  H23      1.0000 0.52690  0.33380  0.45290  Biso   1.000  H
  C36      1.0000 0.25730  0.44280  0.34520  Biso   1.000  C
  H24      1.0000 0.20430  0.52050  0.29360  Biso   1.000  H
  N4       1.0000 0.29220  0.20860  0.47500  Biso   1.000  N
  O7       1.0000 0.34080  0.92350  0.68760  Biso   1.000  O
  O8       1.0000 0.22880  0.78670  0.69650  Biso   1.000  O
  C37      1.0000 0.38750  0.69910  0.83460  Biso   1.000  C
  C38      1.0000 0.31220  0.80860  0.73510  Biso   1.000  C
  C39      1.0000 0.44710  0.47830  0.99970  Biso   1.000  C
  C40      1.0000 0.35380  0.58350  0.90440  Biso   1.000  C
  H25      1.0000 0.27850  0.56550  0.89730  Biso   1.000  H
  C41      1.0000 0.50000  0.72370  0.85030  Biso   1.000  C
  H26      1.0000 0.51850  0.80910  0.79860  Biso   1.000  H
  C42      1.0000 0.17550  0.79490  0.25500  Biso   1.000  C
  C43      1.0000 0.07470  0.87530  0.18680  Biso   1.000  C
  H27      1.0000 0.08320  0.89190  0.09880  Biso   1.000  H
  C44      1.0000 0.41660  0.36440  0.06710  Biso   1.000  C
  H28      1.0000 0.34290  0.34340  0.06020  Biso   1.000  H
