data_image0
_cell_length_a       8.319
_cell_length_b       18.261
_cell_length_c       30.925
_cell_angle_alpha    90
_cell_angle_beta     93.84
_cell_angle_gamma    90

_symmetry_space_group_name_H-M    "P 1"
_symmetry_int_tables_number       1

loop_
  _symmetry_equiv_pos_as_xyz
  'x, y, z'

loop_
  _atom_site_label
  _atom_site_occupancy
  _atom_site_fract_x
  _atom_site_fract_y
  _atom_site_fract_z
  _atom_site_thermal_displace_type
  _atom_site_B_iso_or_equiv
  _atom_site_type_symbol
  C1       1.0000 0.25420  0.84400  0.25330  Biso   1.000  C
  N1       1.0000 0.26060  0.72376  0.26000  Biso   1.000  N
  C2       1.0000 0.12280  0.74780  0.27247  Biso   1.000  C
  N2       1.0000 0.11250  0.82076  0.26883  Biso   1.000  N
  Co1      1.0000 0.18129  0.11773  0.24760  Biso   1.000  Co
  N3       1.0000 0.34840  0.05293  0.27873  Biso   1.000  N
  N4       1.0000 0.55680  0.98236  0.29415  Biso   1.000  N
  C3       1.0000 0.97540  0.86400  0.27702  Biso   1.000  C
  C4       1.0000 0.94730  0.92760  0.25541  Biso   1.000  C
  H1       1.0000 0.02050  0.94400  0.23610  Biso   1.000  H
  C5       1.0000 0.81140  0.96810  0.26166  Biso   1.000  C
  H2       1.0000 0.79420  0.01240  0.24730  Biso   1.000  H
  C6       1.0000 0.70310  0.94320  0.28872  Biso   1.000  C
  C7       1.0000 0.73200  0.88100  0.31190  Biso   1.000  C
  H3       1.0000 0.65820  0.86460  0.33100  Biso   1.000  H
  C8       1.0000 0.87310  0.84190  0.30680  Biso   1.000  C
  H4       1.0000 0.89730  0.80080  0.32380  Biso   1.000  H
  H5       1.0000 0.04270  0.71830  0.28260  Biso   1.000  H
  H6       1.0000 0.28320  0.89210  0.24790  Biso   1.000  H
  C9       1.0000 0.34240  0.78440  0.24769  Biso   1.000  C
  H7       1.0000 0.44420  0.78400  0.23700  Biso   1.000  H
  C10      1.0000 0.47940  0.02557  0.26414  Biso   1.000  C
  H8       1.0000 0.51460  0.03470  0.23670  Biso   1.000  H
  C11      1.0000 0.33980  0.02580  0.31944  Biso   1.000  C
  H9       1.0000 0.25760  0.03530  0.33760  Biso   1.000  H
  C12      1.0000 0.46850  0.98330  0.32931  Biso   1.000  C
  H10      1.0000 0.49240  0.95900  0.35540  Biso   1.000  H
  C13      1.0000 0.24580  0.34400  0.24670  Biso   1.000  C
  N5       1.0000 0.23940  0.22376  0.24000  Biso   1.000  N
  C14      1.0000 0.37720  0.24780  0.22753  Biso   1.000  C
  N6       1.0000 0.38750  0.32076  0.23117  Biso   1.000  N
  Co2      1.0000 0.31871  0.61773  0.25240  Biso   1.000  Co
  N7       1.0000 0.15160  0.55293  0.22127  Biso   1.000  N
  N8       1.0000 0.94320  0.48236  0.20585  Biso   1.000  N
  C15      1.0000 0.52460  0.36400  0.22298  Biso   1.000  C
  C16      1.0000 0.55270  0.42760  0.24459  Biso   1.000  C
  H11      1.0000 0.47950  0.44400  0.26390  Biso   1.000  H
  C17      1.0000 0.68860  0.46810  0.23834  Biso   1.000  C
  H12      1.0000 0.70580  0.51240  0.25270  Biso   1.000  H
  C18      1.0000 0.79690  0.44320  0.21128  Biso   1.000  C
  C19      1.0000 0.76800  0.38100  0.18810  Biso   1.000  C
  H13      1.0000 0.84180  0.36460  0.16900  Biso   1.000  H
  C20      1.0000 0.62690  0.34190  0.19320  Biso   1.000  C
  H14      1.0000 0.60270  0.30080  0.17620  Biso   1.000  H
  H15      1.0000 0.45730  0.21830  0.21740  Biso   1.000  H
  H16      1.0000 0.21680  0.39210  0.25210  Biso   1.000  H
  C21      1.0000 0.15760  0.28440  0.25231  Biso   1.000  C
  H17      1.0000 0.05580  0.28400  0.26300  Biso   1.000  H
  C22      1.0000 0.02060  0.52557  0.23586  Biso   1.000  C
  H18      1.0000 0.98540  0.53470  0.26330  Biso   1.000  H
  C23      1.0000 0.16020  0.52580  0.18056  Biso   1.000  C
  H19      1.0000 0.24240  0.53530  0.16240  Biso   1.000  H
  C24      1.0000 0.03150  0.48330  0.17069  Biso   1.000  C
  H20      1.0000 0.00760  0.45900  0.14460  Biso   1.000  H
  C25      1.0000 0.74580  0.15600  0.74670  Biso   1.000  C
  N9       1.0000 0.73940  0.27624  0.74000  Biso   1.000  N
  C26      1.0000 0.87720  0.25220  0.72753  Biso   1.000  C
  N10      1.0000 0.88750  0.17924  0.73117  Biso   1.000  N
  Co3      1.0000 0.81871  0.88227  0.75240  Biso   1.000  Co
  N11      1.0000 0.65160  0.94707  0.72127  Biso   1.000  N
  N12      1.0000 0.44320  0.01764  0.70585  Biso   1.000  N
  C27      1.0000 0.02460  0.13600  0.72298  Biso   1.000  C
  C28      1.0000 0.05270  0.07240  0.74459  Biso   1.000  C
  H21      1.0000 0.97950  0.05600  0.76390  Biso   1.000  H
  C29      1.0000 0.18860  0.03190  0.73834  Biso   1.000  C
  H22      1.0000 0.20580  0.98760  0.75270  Biso   1.000  H
  C30      1.0000 0.29690  0.05680  0.71128  Biso   1.000  C
  C31      1.0000 0.26800  0.11900  0.68810  Biso   1.000  C
  H23      1.0000 0.34180  0.13540  0.66900  Biso   1.000  H
  C32      1.0000 0.12690  0.15810  0.69320  Biso   1.000  C
  H24      1.0000 0.10270  0.19920  0.67620  Biso   1.000  H
  H25      1.0000 0.95730  0.28170  0.71740  Biso   1.000  H
  H26      1.0000 0.71680  0.10790  0.75210  Biso   1.000  H
  C33      1.0000 0.65760  0.21560  0.75231  Biso   1.000  C
  H27      1.0000 0.55580  0.21600  0.76300  Biso   1.000  H
  C34      1.0000 0.52060  0.97443  0.73586  Biso   1.000  C
  H28      1.0000 0.48540  0.96530  0.76330  Biso   1.000  H
  C35      1.0000 0.66020  0.97420  0.68056  Biso   1.000  C
  H29      1.0000 0.74240  0.96470  0.66240  Biso   1.000  H
  C36      1.0000 0.53150  0.01670  0.67069  Biso   1.000  C
  H30      1.0000 0.50760  0.04100  0.64460  Biso   1.000  H
  C37      1.0000 0.75420  0.65600  0.75330  Biso   1.000  C
  N13      1.0000 0.76060  0.77624  0.76000  Biso   1.000  N
  C38      1.0000 0.62280  0.75220  0.77247  Biso   1.000  C
  N14      1.0000 0.61250  0.67924  0.76883  Biso   1.000  N
  Co4      1.0000 0.68129  0.38227  0.74760  Biso   1.000  Co
  N15      1.0000 0.84840  0.44707  0.77873  Biso   1.000  N
  N16      1.0000 0.05680  0.51764  0.79415  Biso   1.000  N
  C39      1.0000 0.47540  0.63600  0.77702  Biso   1.000  C
  C40      1.0000 0.44730  0.57240  0.75541  Biso   1.000  C
  H31      1.0000 0.52050  0.55600  0.73610  Biso   1.000  H
  C41      1.0000 0.31140  0.53190  0.76166  Biso   1.000  C
  H32      1.0000 0.29420  0.48760  0.74730  Biso   1.000  H
  C42      1.0000 0.20310  0.55680  0.78872  Biso   1.000  C
  C43      1.0000 0.23200  0.61900  0.81190  Biso   1.000  C
  H33      1.0000 0.15820  0.63540  0.83100  Biso   1.000  H
  C44      1.0000 0.37310  0.65810  0.80680  Biso   1.000  C
  H34      1.0000 0.39730  0.69920  0.82380  Biso   1.000  H
  H35      1.0000 0.54270  0.78170  0.78260  Biso   1.000  H
  H36      1.0000 0.78320  0.60790  0.74790  Biso   1.000  H
  C45      1.0000 0.84240  0.71560  0.74769  Biso   1.000  C
  H37      1.0000 0.94420  0.71600  0.73700  Biso   1.000  H
  C46      1.0000 0.97940  0.47443  0.76414  Biso   1.000  C
  H38      1.0000 0.01460  0.46530  0.73670  Biso   1.000  H
  C47      1.0000 0.83980  0.47420  0.81944  Biso   1.000  C
  H39      1.0000 0.75760  0.46470  0.83760  Biso   1.000  H
  C48      1.0000 0.96850  0.51670  0.82931  Biso   1.000  C
  H40      1.0000 0.99240  0.54100  0.85540  Biso   1.000  H
  N17      1.0000 0.61850  0.22090  0.59310  Biso   1.000  N
  N18      1.0000 0.26460  0.36570  0.67658  Biso   1.000  N
  N19      1.0000 0.38280  0.42129  0.48896  Biso   1.000  N
  H41      1.0000 0.46420  0.38120  0.48450  Biso   1.000  H
  O1       1.0000 0.67850  0.21010  0.55907  Biso   1.000  O
  O2       1.0000 0.64760  0.18320  0.62540  Biso   1.000  O
  O3       1.0000 0.28460  0.32120  0.70540  Biso   1.000  O
  O4       1.0000 0.18970  0.42230  0.67973  Biso   1.000  O
  O5       1.0000 0.20000  0.47300  0.53021  Biso   1.000  O
  O6       1.0000 0.40900  0.55936  0.30254  Biso   1.000  O
  O7       1.0000 0.17150  0.60024  0.31704  Biso   1.000  O
  C49      1.0000 0.36090  0.37900  0.56236  Biso   1.000  C
  C50      1.0000 0.46720  0.32220  0.55963  Biso   1.000  C
  H42      1.0000 0.51220  0.31160  0.53360  Biso   1.000  H
  C51      1.0000 0.50620  0.28100  0.59613  Biso   1.000  C
  C52      1.0000 0.44410  0.29430  0.63495  Biso   1.000  C
  H43      1.0000 0.47280  0.26620  0.65930  Biso   1.000  H
  C53      1.0000 0.33830  0.35040  0.63628  Biso   1.000  C
  C54      1.0000 0.29480  0.39360  0.60181  Biso   1.000  C
  H44      1.0000 0.22270  0.43200  0.60440  Biso   1.000  H
  C55      1.0000 0.30580  0.42890  0.52572  Biso   1.000  C
  C56      1.0000 0.35220  0.45758  0.44957  Biso   1.000  C
  C57      1.0000 0.46000  0.44550  0.41839  Biso   1.000  C
  H45      1.0000 0.54680  0.41410  0.42440  Biso   1.000  H
  C58      1.0000 0.44140  0.47880  0.37893  Biso   1.000  C
  H46      1.0000 0.51570  0.47030  0.35830  Biso   1.000  H
  C59      1.0000 0.31140  0.52538  0.36946  Biso   1.000  C
  C60      1.0000 0.20160  0.53510  0.40030  Biso   1.000  C
  H47      1.0000 0.11220  0.56470  0.39390  Biso   1.000  H
  C61      1.0000 0.22030  0.50240  0.44025  Biso   1.000  C
  H48      1.0000 0.14540  0.51020  0.46080  Biso   1.000  H
  C62      1.0000 0.29430  0.56399  0.32770  Biso   1.000  C
  N20      1.0000 0.58140  0.89500  0.15162  Biso   1.000  N
  N21      1.0000 0.59340  0.83560  0.99914  Biso   1.000  N
  N22      1.0000 0.09050  0.72761  0.11362  Biso   1.000  N
  H49      1.0000 0.18120  0.71590  0.13110  Biso   1.000  H
  O8       1.0000 0.50300  0.89950  0.18290  Biso   1.000  O
  O9       1.0000 0.71800  0.91630  0.15020  Biso   1.000  O
  O10      1.0000 0.73450  0.85450  0.00154  Biso   1.000  O
  O11      1.0000 0.51770  0.81950  0.96630  Biso   1.000  O
  O12      1.0000 0.02880  0.77333  0.04630  Biso   1.000  O
  O13      1.0000 0.50220  0.62548  0.21691  Biso   1.000  O
  O14      1.0000 0.36430  0.67019  0.15975  Biso   1.000  O
  C63      1.0000 0.28840  0.79450  0.07800  Biso   1.000  C
  C64      1.0000 0.36090  0.82640  0.11516  Biso   1.000  C
  H50      1.0000 0.31160  0.82450  0.14130  Biso   1.000  H
  C65      1.0000 0.50670  0.86080  0.11258  Biso   1.000  C
  C66      1.0000 0.58640  0.86530  0.07547  Biso   1.000  C
  H51      1.0000 0.68520  0.88880  0.07460  Biso   1.000  H
  C67      1.0000 0.51100  0.83260  0.03953  Biso   1.000  C
  C68      1.0000 0.36610  0.79830  0.03981  Biso   1.000  C
  H52      1.0000 0.31940  0.77760  0.01450  Biso   1.000  H
  C69      1.0000 0.12290  0.76320  0.07744  Biso   1.000  C
  C70      1.0000 0.93910  0.70740  0.12724  Biso   1.000  C
  C71      1.0000 0.93430  0.68890  0.17014  Biso   1.000  C
  H53      1.0000 0.02890  0.68880  0.18800  Biso   1.000  H
  C72      1.0000 0.79120  0.67060  0.18686  Biso   1.000  C
  H54      1.0000 0.78960  0.65770  0.21590  Biso   1.000  H
  C73      1.0000 0.64810  0.67106  0.16081  Biso   1.000  C
  C74      1.0000 0.65510  0.68800  0.11794  Biso   1.000  C
  H55      1.0000 0.56080  0.68750  0.10000  Biso   1.000  H
  C75      1.0000 0.79990  0.70590  0.10033  Biso   1.000  C
  H56      1.0000 0.80270  0.71670  0.07100  Biso   1.000  H
  C76      1.0000 0.49310  0.65468  0.17986  Biso   1.000  C
  N23      1.0000 0.88150  0.72090  0.90690  Biso   1.000  N
  N24      1.0000 0.23540  0.86570  0.82342  Biso   1.000  N
  N25      1.0000 0.11720  0.92129  0.01104  Biso   1.000  N
  H57      1.0000 0.03580  0.88120  0.01550  Biso   1.000  H
  O15      1.0000 0.82150  0.71010  0.94093  Biso   1.000  O
  O16      1.0000 0.85240  0.68320  0.87460  Biso   1.000  O
  O17      1.0000 0.21540  0.82120  0.79460  Biso   1.000  O
  O18      1.0000 0.31030  0.92230  0.82027  Biso   1.000  O
  O19      1.0000 0.30000  0.97300  0.96979  Biso   1.000  O
  O20      1.0000 0.09100  0.05936  0.19746  Biso   1.000  O
  O21      1.0000 0.32850  0.10024  0.18296  Biso   1.000  O
  C77      1.0000 0.13910  0.87900  0.93764  Biso   1.000  C
  C78      1.0000 0.03280  0.82220  0.94037  Biso   1.000  C
  H58      1.0000 0.98780  0.81160  0.96640  Biso   1.000  H
  C79      1.0000 0.99380  0.78100  0.90387  Biso   1.000  C
  C80      1.0000 0.05590  0.79430  0.86505  Biso   1.000  C
  H59      1.0000 0.02720  0.76620  0.84070  Biso   1.000  H
  C81      1.0000 0.16170  0.85040  0.86372  Biso   1.000  C
  C82      1.0000 0.20520  0.89360  0.89819  Biso   1.000  C
  H60      1.0000 0.27730  0.93200  0.89560  Biso   1.000  H
  C83      1.0000 0.19420  0.92890  0.97428  Biso   1.000  C
  C84      1.0000 0.14780  0.95758  0.05043  Biso   1.000  C
  C85      1.0000 0.04000  0.94550  0.08161  Biso   1.000  C
  H61      1.0000 0.95320  0.91410  0.07560  Biso   1.000  H
  C86      1.0000 0.05860  0.97880  0.12107  Biso   1.000  C
  H62      1.0000 0.98430  0.97030  0.14170  Biso   1.000  H
  C87      1.0000 0.18860  0.02538  0.13054  Biso   1.000  C
  C88      1.0000 0.29840  0.03510  0.09970  Biso   1.000  C
  H63      1.0000 0.38780  0.06470  0.10610  Biso   1.000  H
  C89      1.0000 0.27970  0.00240  0.05975  Biso   1.000  C
  H64      1.0000 0.35460  0.01020  0.03920  Biso   1.000  H
  C90      1.0000 0.20570  0.06399  0.17230  Biso   1.000  C
  N26      1.0000 0.91860  0.39500  0.34838  Biso   1.000  N
  N27      1.0000 0.90660  0.33560  0.50086  Biso   1.000  N
  N28      1.0000 0.40950  0.22761  0.38638  Biso   1.000  N
  H65      1.0000 0.31880  0.21590  0.36890  Biso   1.000  H
  O22      1.0000 0.99700  0.39950  0.31710  Biso   1.000  O
  O23      1.0000 0.78200  0.41630  0.34980  Biso   1.000  O
  O24      1.0000 0.76550  0.35450  0.49846  Biso   1.000  O
  O25      1.0000 0.98230  0.31950  0.53370  Biso   1.000  O
  O26      1.0000 0.47120  0.27333  0.45370  Biso   1.000  O
  O27      1.0000 0.99780  0.12548  0.28309  Biso   1.000  O
  O28      1.0000 0.13570  0.17019  0.34025  Biso   1.000  O
  C91      1.0000 0.21160  0.29450  0.42200  Biso   1.000  C
  C92      1.0000 0.13910  0.32640  0.38484  Biso   1.000  C
  H66      1.0000 0.18840  0.32450  0.35870  Biso   1.000  H
  C93      1.0000 0.99330  0.36080  0.38742  Biso   1.000  C
  C94      1.0000 0.91360  0.36530  0.42453  Biso   1.000  C
  H67      1.0000 0.81480  0.38880  0.42540  Biso   1.000  H
  C95      1.0000 0.98900  0.33260  0.46047  Biso   1.000  C
  C96      1.0000 0.13390  0.29830  0.46019  Biso   1.000  C
  H68      1.0000 0.18060  0.27760  0.48550  Biso   1.000  H
  C97      1.0000 0.37710  0.26320  0.42256  Biso   1.000  C
  C98      1.0000 0.56090  0.20740  0.37276  Biso   1.000  C
  C99      1.0000 0.56570  0.18890  0.32986  Biso   1.000  C
  H69      1.0000 0.47110  0.18880  0.31200  Biso   1.000  H
  C100     1.0000 0.70880  0.17060  0.31314  Biso   1.000  C
  H70      1.0000 0.71040  0.15770  0.28410  Biso   1.000  H
  C101     1.0000 0.85190  0.17106  0.33919  Biso   1.000  C
  C102     1.0000 0.84490  0.18800  0.38206  Biso   1.000  C
  H71      1.0000 0.93920  0.18750  0.40000  Biso   1.000  H
  C103     1.0000 0.70010  0.20590  0.39967  Biso   1.000  C
  H72      1.0000 0.69730  0.21670  0.42900  Biso   1.000  H
  C104     1.0000 0.00690  0.15468  0.32014  Biso   1.000  C
  N29      1.0000 0.38150  0.77910  0.40690  Biso   1.000  N
  N30      1.0000 0.73540  0.63430  0.32342  Biso   1.000  N
  N31      1.0000 0.61720  0.57871  0.51104  Biso   1.000  N
  H73      1.0000 0.53580  0.61880  0.51550  Biso   1.000  H
  O29      1.0000 0.32150  0.78990  0.44093  Biso   1.000  O
  O30      1.0000 0.35240  0.81680  0.37460  Biso   1.000  O
  O31      1.0000 0.71540  0.67880  0.29460  Biso   1.000  O
  O32      1.0000 0.81030  0.57770  0.32027  Biso   1.000  O
  O33      1.0000 0.80000  0.52700  0.46979  Biso   1.000  O
  O34      1.0000 0.59100  0.44064  0.69746  Biso   1.000  O
  O35      1.0000 0.82850  0.39976  0.68296  Biso   1.000  O
  C105     1.0000 0.63910  0.62100  0.43764  Biso   1.000  C
  C106     1.0000 0.53280  0.67780  0.44037  Biso   1.000  C
  H74      1.0000 0.48780  0.68840  0.46640  Biso   1.000  H
  C107     1.0000 0.49380  0.71900  0.40387  Biso   1.000  C
  C108     1.0000 0.55590  0.70570  0.36505  Biso   1.000  C
  H75      1.0000 0.52720  0.73380  0.34070  Biso   1.000  H
  C109     1.0000 0.66170  0.64960  0.36372  Biso   1.000  C
  C110     1.0000 0.70520  0.60640  0.39819  Biso   1.000  C
  H76      1.0000 0.77730  0.56800  0.39560  Biso   1.000  H
  C111     1.0000 0.69420  0.57110  0.47428  Biso   1.000  C
  C112     1.0000 0.64780  0.54242  0.55043  Biso   1.000  C
  C113     1.0000 0.54000  0.55450  0.58161  Biso   1.000  C
  H77      1.0000 0.45320  0.58590  0.57560  Biso   1.000  H
  C114     1.0000 0.55860  0.52120  0.62107  Biso   1.000  C
  H78      1.0000 0.48430  0.52970  0.64170  Biso   1.000  H
  C115     1.0000 0.68860  0.47462  0.63054  Biso   1.000  C
  C116     1.0000 0.79840  0.46490  0.59970  Biso   1.000  C
  H79      1.0000 0.88780  0.43530  0.60610  Biso   1.000  H
  C117     1.0000 0.77970  0.49760  0.55975  Biso   1.000  C
  H80      1.0000 0.85460  0.48980  0.53920  Biso   1.000  H
  C118     1.0000 0.70570  0.43601  0.67230  Biso   1.000  C
  N32      1.0000 0.41860  0.10500  0.84838  Biso   1.000  N
  N33      1.0000 0.40660  0.16440  0.00086  Biso   1.000  N
  N34      1.0000 0.90950  0.27239  0.88638  Biso   1.000  N
  H81      1.0000 0.81880  0.28410  0.86890  Biso   1.000  H
  O36      1.0000 0.49700  0.10050  0.81710  Biso   1.000  O
  O37      1.0000 0.28200  0.08370  0.84980  Biso   1.000  O
  O38      1.0000 0.26550  0.14550  0.99846  Biso   1.000  O
  O39      1.0000 0.48230  0.18050  0.03370  Biso   1.000  O
  O40      1.0000 0.97120  0.22667  0.95370  Biso   1.000  O
  O41      1.0000 0.49780  0.37452  0.78309  Biso   1.000  O
  O42      1.0000 0.63570  0.32981  0.84025  Biso   1.000  O
  C119     1.0000 0.71160  0.20550  0.92200  Biso   1.000  C
  C120     1.0000 0.63910  0.17360  0.88484  Biso   1.000  C
  H82      1.0000 0.68840  0.17550  0.85870  Biso   1.000  H
  C121     1.0000 0.49330  0.13920  0.88742  Biso   1.000  C
  C122     1.0000 0.41360  0.13470  0.92453  Biso   1.000  C
  H83      1.0000 0.31480  0.11120  0.92540  Biso   1.000  H
  C123     1.0000 0.48900  0.16740  0.96047  Biso   1.000  C
  C124     1.0000 0.63390  0.20170  0.96019  Biso   1.000  C
  H84      1.0000 0.68060  0.22240  0.98550  Biso   1.000  H
  C125     1.0000 0.87710  0.23680  0.92256  Biso   1.000  C
  C126     1.0000 0.06090  0.29260  0.87276  Biso   1.000  C
  C127     1.0000 0.06570  0.31110  0.82986  Biso   1.000  C
  H85      1.0000 0.97110  0.31120  0.81200  Biso   1.000  H
  C128     1.0000 0.20880  0.32940  0.81314  Biso   1.000  C
  H86      1.0000 0.21040  0.34230  0.78410  Biso   1.000  H
  C129     1.0000 0.35190  0.32894  0.83919  Biso   1.000  C
  C130     1.0000 0.34490  0.31200  0.88206  Biso   1.000  C
  H87      1.0000 0.43920  0.31250  0.90000  Biso   1.000  H
  C131     1.0000 0.20010  0.29410  0.89967  Biso   1.000  C
  H88      1.0000 0.19730  0.28330  0.92900  Biso   1.000  H
  C132     1.0000 0.50690  0.34532  0.82014  Biso   1.000  C
  N35      1.0000 0.11850  0.27910  0.09310  Biso   1.000  N
  N36      1.0000 0.76460  0.13430  0.17658  Biso   1.000  N
  N37      1.0000 0.88280  0.07871  0.98896  Biso   1.000  N
  H89      1.0000 0.96420  0.11880  0.98450  Biso   1.000  H
  O43      1.0000 0.17850  0.28990  0.05907  Biso   1.000  O
  O44      1.0000 0.14760  0.31680  0.12540  Biso   1.000  O
  O45      1.0000 0.78460  0.17880  0.20540  Biso   1.000  O
  O46      1.0000 0.68970  0.07770  0.17973  Biso   1.000  O
  O47      1.0000 0.70000  0.02700  0.03021  Biso   1.000  O
  O48      1.0000 0.90900  0.94064  0.80254  Biso   1.000  O
  O49      1.0000 0.67150  0.89976  0.81704  Biso   1.000  O
  C133     1.0000 0.86090  0.12100  0.06236  Biso   1.000  C
  C134     1.0000 0.96720  0.17780  0.05963  Biso   1.000  C
  H90      1.0000 0.01220  0.18840  0.03360  Biso   1.000  H
  C135     1.0000 0.00620  0.21900  0.09613  Biso   1.000  C
  C136     1.0000 0.94410  0.20570  0.13495  Biso   1.000  C
  H91      1.0000 0.97280  0.23380  0.15930  Biso   1.000  H
  C137     1.0000 0.83830  0.14960  0.13628  Biso   1.000  C
  C138     1.0000 0.79480  0.10640  0.10181  Biso   1.000  C
  H92      1.0000 0.72270  0.06800  0.10440  Biso   1.000  H
  C139     1.0000 0.80580  0.07110  0.02572  Biso   1.000  C
  C140     1.0000 0.85220  0.04242  0.94957  Biso   1.000  C
  C141     1.0000 0.96000  0.05450  0.91839  Biso   1.000  C
  H93      1.0000 0.04680  0.08590  0.92440  Biso   1.000  H
  C142     1.0000 0.94140  0.02120  0.87893  Biso   1.000  C
  H94      1.0000 0.01570  0.02970  0.85830  Biso   1.000  H
  C143     1.0000 0.81140  0.97462  0.86946  Biso   1.000  C
  C144     1.0000 0.70160  0.96490  0.90030  Biso   1.000  C
  H95      1.0000 0.61220  0.93530  0.89390  Biso   1.000  H
  C145     1.0000 0.72030  0.99760  0.94025  Biso   1.000  C
  H96      1.0000 0.64540  0.98980  0.96080  Biso   1.000  H
  C146     1.0000 0.79430  0.93601  0.82770  Biso   1.000  C
  N38      1.0000 0.08140  0.60500  0.65162  Biso   1.000  N
  N39      1.0000 0.09340  0.66440  0.49914  Biso   1.000  N
  N40      1.0000 0.59050  0.77239  0.61362  Biso   1.000  N
  H97      1.0000 0.68120  0.78410  0.63110  Biso   1.000  H
  O50      1.0000 0.00300  0.60050  0.68290  Biso   1.000  O
  O51      1.0000 0.21800  0.58370  0.65020  Biso   1.000  O
  O52      1.0000 0.23450  0.64550  0.50154  Biso   1.000  O
  O53      1.0000 0.01770  0.68050  0.46630  Biso   1.000  O
  O54      1.0000 0.52880  0.72667  0.54630  Biso   1.000  O
  O55      1.0000 0.00220  0.87452  0.71691  Biso   1.000  O
  O56      1.0000 0.86430  0.82981  0.65975  Biso   1.000  O
  C147     1.0000 0.78840  0.70550  0.57800  Biso   1.000  C
  C148     1.0000 0.86090  0.67360  0.61516  Biso   1.000  C
  H98      1.0000 0.81160  0.67550  0.64130  Biso   1.000  H
  C149     1.0000 0.00670  0.63920  0.61258  Biso   1.000  C
  C150     1.0000 0.08640  0.63470  0.57547  Biso   1.000  C
  H99      1.0000 0.18520  0.61120  0.57460  Biso   1.000  H
  C151     1.0000 0.01100  0.66740  0.53953  Biso   1.000  C
  C152     1.0000 0.86610  0.70170  0.53981  Biso   1.000  C
  H100     1.0000 0.81940  0.72240  0.51450  Biso   1.000  H
  C153     1.0000 0.62290  0.73680  0.57744  Biso   1.000  C
  C154     1.0000 0.43910  0.79260  0.62724  Biso   1.000  C
  C155     1.0000 0.43430  0.81110  0.67014  Biso   1.000  C
  H101     1.0000 0.52890  0.81120  0.68800  Biso   1.000  H
  C156     1.0000 0.29120  0.82940  0.68686  Biso   1.000  C
  H102     1.0000 0.28960  0.84230  0.71590  Biso   1.000  H
  C157     1.0000 0.14810  0.82894  0.66081  Biso   1.000  C
  C158     1.0000 0.15510  0.81200  0.61794  Biso   1.000  C
  H103     1.0000 0.06080  0.81250  0.60000  Biso   1.000  H
  C159     1.0000 0.29990  0.79410  0.60033  Biso   1.000  C
  H104     1.0000 0.30270  0.78330  0.57100  Biso   1.000  H
  C160     1.0000 0.99310  0.84532  0.67986  Biso   1.000  C
