data_image0
_cell_length_a       10.4806
_cell_length_b       21.312
_cell_length_c       11.3293
_cell_angle_alpha    90
_cell_angle_beta     94.497
_cell_angle_gamma    90

_symmetry_space_group_name_H-M    "P 1"
_symmetry_int_tables_number       1

loop_
  _symmetry_equiv_pos_as_xyz
  'x, y, z'

loop_
  _atom_site_label
  _atom_site_occupancy
  _atom_site_fract_x
  _atom_site_fract_y
  _atom_site_fract_z
  _atom_site_thermal_displace_type
  _atom_site_B_iso_or_equiv
  _atom_site_type_symbol
  S1       1.0000 0.49519  0.22555  0.41029  Biso   1.000  S
  O1       1.0000 0.95328  0.92777  0.14545  Biso   1.000  O
  O2       1.0000 0.87123  0.89741  0.31271  Biso   1.000  O
  N1       1.0000 0.21658  0.07184  0.27831  Biso   1.000  N
  C1       1.0000 0.78975  0.77016  0.96857  Biso   1.000  C
  C2       1.0000 0.82299  0.83676  0.14154  Biso   1.000  C
  C3       1.0000 0.74385  0.79659  0.20330  Biso   1.000  C
  H1       1.0000 0.72960  0.80540  0.28160  Biso   1.000  H
  C4       1.0000 0.39754  0.13793  0.25616  Biso   1.000  C
  H2       1.0000 0.46190  0.15080  0.20960  Biso   1.000  H
  C5       1.0000 0.84299  0.82391  0.02571  Biso   1.000  C
  H3       1.0000 0.89250  0.85110  0.98420  Biso   1.000  H
  C6       1.0000 0.38735  0.16400  0.36662  Biso   1.000  C
  C7       1.0000 0.68833  0.74516  0.14962  Biso   1.000  C
  H4       1.0000 0.63530  0.71980  0.19120  Biso   1.000  H
  C8       1.0000 0.31110  0.09258  0.21592  Biso   1.000  C
  H5       1.0000 0.31890  0.07550  0.14130  Biso   1.000  H
  C9       1.0000 0.88646  0.89145  0.20554  Biso   1.000  C
  C10      1.0000 0.20890  0.09736  0.38578  Biso   1.000  C
  H6       1.0000 0.14450  0.08350  0.43140  Biso   1.000  H
  C11      1.0000 0.29100  0.14288  0.43202  Biso   1.000  C
  H7       1.0000 0.28150  0.15930  0.50690  Biso   1.000  H
  S2       1.0000 0.99519  0.72555  0.41029  Biso   1.000  S
  O3       1.0000 0.45328  0.42777  0.14545  Biso   1.000  O
  O4       1.0000 0.37123  0.39741  0.31271  Biso   1.000  O
  N2       1.0000 0.71658  0.57184  0.27831  Biso   1.000  N
  C12      1.0000 0.28975  0.27016  0.96857  Biso   1.000  C
  C13      1.0000 0.32299  0.33676  0.14154  Biso   1.000  C
  C14      1.0000 0.24385  0.29659  0.20330  Biso   1.000  C
  H8       1.0000 0.22960  0.30540  0.28160  Biso   1.000  H
  C15      1.0000 0.89754  0.63793  0.25616  Biso   1.000  C
  H9       1.0000 0.96190  0.65080  0.20960  Biso   1.000  H
  C16      1.0000 0.34299  0.32391  0.02571  Biso   1.000  C
  H10      1.0000 0.39250  0.35110  0.98420  Biso   1.000  H
  C17      1.0000 0.88735  0.66400  0.36662  Biso   1.000  C
  C18      1.0000 0.18833  0.24516  0.14962  Biso   1.000  C
  H11      1.0000 0.13530  0.21980  0.19120  Biso   1.000  H
  C19      1.0000 0.81110  0.59258  0.21592  Biso   1.000  C
  H12      1.0000 0.81890  0.57550  0.14130  Biso   1.000  H
  C20      1.0000 0.38646  0.39145  0.20554  Biso   1.000  C
  C21      1.0000 0.70890  0.59736  0.38578  Biso   1.000  C
  H13      1.0000 0.64450  0.58350  0.43140  Biso   1.000  H
  C22      1.0000 0.79100  0.64288  0.43202  Biso   1.000  C
  H14      1.0000 0.78150  0.65930  0.50690  Biso   1.000  H
  S3       1.0000 0.50481  0.22555  0.58971  Biso   1.000  S
  O5       1.0000 0.04672  0.92777  0.85455  Biso   1.000  O
  O6       1.0000 0.12877  0.89741  0.68729  Biso   1.000  O
  N3       1.0000 0.78342  0.07184  0.72169  Biso   1.000  N
  C23      1.0000 0.21025  0.77016  0.03143  Biso   1.000  C
  C24      1.0000 0.17701  0.83676  0.85846  Biso   1.000  C
  C25      1.0000 0.25615  0.79659  0.79670  Biso   1.000  C
  H15      1.0000 0.27040  0.80540  0.71840  Biso   1.000  H
  C26      1.0000 0.60246  0.13793  0.74384  Biso   1.000  C
  H16      1.0000 0.53810  0.15080  0.79040  Biso   1.000  H
  C27      1.0000 0.15701  0.82391  0.97429  Biso   1.000  C
  H17      1.0000 0.10750  0.85110  0.01580  Biso   1.000  H
  C28      1.0000 0.61265  0.16400  0.63338  Biso   1.000  C
  C29      1.0000 0.31167  0.74516  0.85038  Biso   1.000  C
  H18      1.0000 0.36470  0.71980  0.80880  Biso   1.000  H
  C30      1.0000 0.68890  0.09258  0.78408  Biso   1.000  C
  H19      1.0000 0.68110  0.07550  0.85870  Biso   1.000  H
  C31      1.0000 0.11354  0.89145  0.79446  Biso   1.000  C
  C32      1.0000 0.79110  0.09736  0.61422  Biso   1.000  C
  H20      1.0000 0.85550  0.08350  0.56860  Biso   1.000  H
  C33      1.0000 0.70900  0.14288  0.56798  Biso   1.000  C
  H21      1.0000 0.71850  0.15930  0.49310  Biso   1.000  H
  S4       1.0000 0.00481  0.72555  0.58971  Biso   1.000  S
  O7       1.0000 0.54672  0.42777  0.85455  Biso   1.000  O
  O8       1.0000 0.62877  0.39741  0.68729  Biso   1.000  O
  N4       1.0000 0.28342  0.57184  0.72169  Biso   1.000  N
  C34      1.0000 0.71025  0.27016  0.03143  Biso   1.000  C
  C35      1.0000 0.67701  0.33676  0.85846  Biso   1.000  C
  C36      1.0000 0.75615  0.29659  0.79670  Biso   1.000  C
  H22      1.0000 0.77040  0.30540  0.71840  Biso   1.000  H
  C37      1.0000 0.10246  0.63793  0.74384  Biso   1.000  C
  H23      1.0000 0.03810  0.65080  0.79040  Biso   1.000  H
  C38      1.0000 0.65701  0.32391  0.97429  Biso   1.000  C
  H24      1.0000 0.60750  0.35110  0.01580  Biso   1.000  H
  C39      1.0000 0.11265  0.66400  0.63338  Biso   1.000  C
  C40      1.0000 0.81167  0.24516  0.85038  Biso   1.000  C
  H25      1.0000 0.86470  0.21980  0.80880  Biso   1.000  H
  C41      1.0000 0.18890  0.59258  0.78408  Biso   1.000  C
  H26      1.0000 0.18110  0.57550  0.85870  Biso   1.000  H
  C42      1.0000 0.61354  0.39145  0.79446  Biso   1.000  C
  C43      1.0000 0.29110  0.59736  0.61422  Biso   1.000  C
  H27      1.0000 0.35550  0.58350  0.56860  Biso   1.000  H
  C44      1.0000 0.20900  0.64288  0.56798  Biso   1.000  C
  H28      1.0000 0.21850  0.65930  0.49310  Biso   1.000  H
  S5       1.0000 0.50481  0.77445  0.58971  Biso   1.000  S
  O9       1.0000 0.04672  0.07223  0.85455  Biso   1.000  O
  O10      1.0000 0.12877  0.10259  0.68729  Biso   1.000  O
  N5       1.0000 0.78342  0.92816  0.72169  Biso   1.000  N
  C45      1.0000 0.21025  0.22984  0.03143  Biso   1.000  C
  C46      1.0000 0.17701  0.16324  0.85846  Biso   1.000  C
  C47      1.0000 0.25615  0.20341  0.79670  Biso   1.000  C
  H29      1.0000 0.27040  0.19460  0.71840  Biso   1.000  H
  C48      1.0000 0.60246  0.86207  0.74384  Biso   1.000  C
  H30      1.0000 0.53810  0.84920  0.79040  Biso   1.000  H
  C49      1.0000 0.15701  0.17609  0.97429  Biso   1.000  C
  H31      1.0000 0.10750  0.14890  0.01580  Biso   1.000  H
  C50      1.0000 0.61265  0.83600  0.63338  Biso   1.000  C
  C51      1.0000 0.31167  0.25484  0.85038  Biso   1.000  C
  H32      1.0000 0.36470  0.28020  0.80880  Biso   1.000  H
  C52      1.0000 0.68890  0.90742  0.78408  Biso   1.000  C
  H33      1.0000 0.68110  0.92450  0.85870  Biso   1.000  H
  C53      1.0000 0.11354  0.10855  0.79446  Biso   1.000  C
  C54      1.0000 0.79110  0.90264  0.61422  Biso   1.000  C
  H34      1.0000 0.85550  0.91650  0.56860  Biso   1.000  H
  C55      1.0000 0.70900  0.85712  0.56798  Biso   1.000  C
  H35      1.0000 0.71850  0.84070  0.49310  Biso   1.000  H
  S6       1.0000 0.00481  0.27445  0.58971  Biso   1.000  S
  O11      1.0000 0.54672  0.57223  0.85455  Biso   1.000  O
  O12      1.0000 0.62877  0.60259  0.68729  Biso   1.000  O
  N6       1.0000 0.28342  0.42816  0.72169  Biso   1.000  N
  C56      1.0000 0.71025  0.72984  0.03143  Biso   1.000  C
  C57      1.0000 0.67701  0.66324  0.85846  Biso   1.000  C
  C58      1.0000 0.75615  0.70341  0.79670  Biso   1.000  C
  H36      1.0000 0.77040  0.69460  0.71840  Biso   1.000  H
  C59      1.0000 0.10246  0.36207  0.74384  Biso   1.000  C
  H37      1.0000 0.03810  0.34920  0.79040  Biso   1.000  H
  C60      1.0000 0.65701  0.67609  0.97429  Biso   1.000  C
  H38      1.0000 0.60750  0.64890  0.01580  Biso   1.000  H
  C61      1.0000 0.11265  0.33600  0.63338  Biso   1.000  C
  C62      1.0000 0.81167  0.75484  0.85038  Biso   1.000  C
  H39      1.0000 0.86470  0.78020  0.80880  Biso   1.000  H
  C63      1.0000 0.18890  0.40742  0.78408  Biso   1.000  C
  H40      1.0000 0.18110  0.42450  0.85870  Biso   1.000  H
  C64      1.0000 0.61354  0.60855  0.79446  Biso   1.000  C
  C65      1.0000 0.29110  0.40264  0.61422  Biso   1.000  C
  H41      1.0000 0.35550  0.41650  0.56860  Biso   1.000  H
  C66      1.0000 0.20900  0.35712  0.56798  Biso   1.000  C
  H42      1.0000 0.21850  0.34070  0.49310  Biso   1.000  H
  S7       1.0000 0.49519  0.77445  0.41029  Biso   1.000  S
  O13      1.0000 0.95328  0.07223  0.14545  Biso   1.000  O
  O14      1.0000 0.87123  0.10259  0.31271  Biso   1.000  O
  N7       1.0000 0.21658  0.92816  0.27831  Biso   1.000  N
  C67      1.0000 0.78975  0.22984  0.96857  Biso   1.000  C
  C68      1.0000 0.82299  0.16324  0.14154  Biso   1.000  C
  C69      1.0000 0.74385  0.20341  0.20330  Biso   1.000  C
  H43      1.0000 0.72960  0.19460  0.28160  Biso   1.000  H
  C70      1.0000 0.39754  0.86207  0.25616  Biso   1.000  C
  H44      1.0000 0.46190  0.84920  0.20960  Biso   1.000  H
  C71      1.0000 0.84299  0.17609  0.02571  Biso   1.000  C
  H45      1.0000 0.89250  0.14890  0.98420  Biso   1.000  H
  C72      1.0000 0.38735  0.83600  0.36662  Biso   1.000  C
  C73      1.0000 0.68833  0.25484  0.14962  Biso   1.000  C
  H46      1.0000 0.63530  0.28020  0.19120  Biso   1.000  H
  C74      1.0000 0.31110  0.90742  0.21592  Biso   1.000  C
  H47      1.0000 0.31890  0.92450  0.14130  Biso   1.000  H
  C75      1.0000 0.88646  0.10855  0.20554  Biso   1.000  C
  C76      1.0000 0.20890  0.90264  0.38578  Biso   1.000  C
  H48      1.0000 0.14450  0.91650  0.43140  Biso   1.000  H
  C77      1.0000 0.29100  0.85712  0.43202  Biso   1.000  C
  H49      1.0000 0.28150  0.84070  0.50690  Biso   1.000  H
  S8       1.0000 0.99519  0.27445  0.41029  Biso   1.000  S
  O15      1.0000 0.45328  0.57223  0.14545  Biso   1.000  O
  O16      1.0000 0.37123  0.60259  0.31271  Biso   1.000  O
  N8       1.0000 0.71658  0.42816  0.27831  Biso   1.000  N
  C78      1.0000 0.28975  0.72984  0.96857  Biso   1.000  C
  C79      1.0000 0.32299  0.66324  0.14154  Biso   1.000  C
  C80      1.0000 0.24385  0.70341  0.20330  Biso   1.000  C
  H50      1.0000 0.22960  0.69460  0.28160  Biso   1.000  H
  C81      1.0000 0.89754  0.36207  0.25616  Biso   1.000  C
  H51      1.0000 0.96190  0.34920  0.20960  Biso   1.000  H
  C82      1.0000 0.34299  0.67609  0.02571  Biso   1.000  C
  H52      1.0000 0.39250  0.64890  0.98420  Biso   1.000  H
  C83      1.0000 0.88735  0.33600  0.36662  Biso   1.000  C
  C84      1.0000 0.18833  0.75484  0.14962  Biso   1.000  C
  H53      1.0000 0.13530  0.78020  0.19120  Biso   1.000  H
  C85      1.0000 0.81110  0.40742  0.21592  Biso   1.000  C
  H54      1.0000 0.81890  0.42450  0.14130  Biso   1.000  H
  C86      1.0000 0.38646  0.60855  0.20554  Biso   1.000  C
  C87      1.0000 0.70890  0.40264  0.38578  Biso   1.000  C
  H55      1.0000 0.64450  0.41650  0.43140  Biso   1.000  H
  C88      1.0000 0.79100  0.35712  0.43202  Biso   1.000  C
  H56      1.0000 0.78150  0.34070  0.50690  Biso   1.000  H
  Co1      1.0000 0.08125  0.00000  0.21301  Biso   1.000  Co
  Co2      1.0000 0.58125  0.50000  0.21301  Biso   1.000  Co
  Co3      1.0000 0.91875  0.00000  0.78699  Biso   1.000  Co
  Co4      1.0000 0.41875  0.50000  0.78699  Biso   1.000  Co
