data_image0
_cell_length_a       11.4795
_cell_length_b       8.8862
_cell_length_c       15.9648
_cell_angle_alpha    90
_cell_angle_beta     93.708
_cell_angle_gamma    90

_symmetry_space_group_name_H-M    "P 1"
_symmetry_int_tables_number       1

loop_
  _symmetry_equiv_pos_as_xyz
  'x, y, z'

loop_
  _atom_site_label
  _atom_site_occupancy
  _atom_site_fract_x
  _atom_site_fract_y
  _atom_site_fract_z
  _atom_site_thermal_displace_type
  _atom_site_B_iso_or_equiv
  _atom_site_type_symbol
  Cu1      1.0000 0.68652  0.92786  0.48295  Biso   1.000  Cu
  Cu2      1.0000 0.23343  0.42829  0.61303  Biso   1.000  Cu
  O1       1.0000 0.38849  0.37554  0.58238  Biso   1.000  O
  O2       1.0000 0.42189  0.02702  0.41827  Biso   1.000  O
  C1       1.0000 0.32500  0.85650  0.50597  Biso   1.000  C
  C2       1.0000 0.21650  0.92710  0.50294  Biso   1.000  C
  H1       1.0000 0.20620  0.02280  0.47700  Biso   1.000  H
  C3       1.0000 0.63900  0.50290  0.36034  Biso   1.000  C
  H2       1.0000 0.57270  0.44570  0.34080  Biso   1.000  H
  C4       1.0000 0.66770  0.19640  0.29840  Biso   1.000  C
  O3       1.0000 0.95054  0.68344  0.62020  Biso   1.000  O
  N1       1.0000 0.24578  0.64470  0.57510  Biso   1.000  N
  C5       1.0000 0.43180  0.92700  0.47112  Biso   1.000  C
  C6       1.0000 0.74950  0.44720  0.35145  Biso   1.000  C
  C7       1.0000 0.87660  0.11730  0.49660  Biso   1.000  C
  C8       1.0000 0.84220  0.53700  0.38292  Biso   1.000  C
  H3       1.0000 0.92020  0.50340  0.37890  Biso   1.000  H
  C9       1.0000 0.33550  0.71370  0.54279  Biso   1.000  C
  H4       1.0000 0.40910  0.66450  0.54480  Biso   1.000  H
  O4       1.0000 0.07982  0.49933  0.64467  Biso   1.000  O
  O5       1.0000 0.84433  0.99326  0.46197  Biso   1.000  O
  C10      1.0000 0.62380  0.64160  0.39767  Biso   1.000  C
  H5       1.0000 0.54640  0.67680  0.40280  Biso   1.000  H
  O6       1.0000 0.48801  0.51170  0.68124  Biso   1.000  O
  C11      1.0000 0.82120  0.67470  0.41998  Biso   1.000  C
  H6       1.0000 0.88580  0.73310  0.44120  Biso   1.000  H
  O7       1.0000 0.52721  0.87281  0.50433  Biso   1.000  O
  C12      1.0000 0.78060  0.20770  0.53354  Biso   1.000  C
  N2       1.0000 0.71273  0.72880  0.42697  Biso   1.000  N
  N3       1.0000 0.21449  0.22860  0.67325  Biso   1.000  N
  N4       1.0000 0.67417  0.14380  0.52204  Biso   1.000  N
  O8       1.0000 0.97704  0.16621  0.50135  Biso   1.000  O
  C13      1.0000 0.14212  0.71590  0.57388  Biso   1.000  C
  C14      1.0000 0.12360  0.85660  0.53810  Biso   1.000  C
  H7       1.0000 0.04920  0.90360  0.53770  Biso   1.000  H
  C15      1.0000 0.79700  0.34430  0.57409  Biso   1.000  C
  H8       1.0000 0.87260  0.38780  0.58090  Biso   1.000  H
  C16      1.0000 0.30110  0.12730  0.68077  Biso   1.000  C
  H9       1.0000 0.37270  0.15080  0.65700  Biso   1.000  H
  C17      1.0000 0.58190  0.21610  0.54906  Biso   1.000  C
  H10      1.0000 0.50680  0.17260  0.53880  Biso   1.000  H
  C18      1.0000 0.04850  0.62830  0.61513  Biso   1.000  C
  C19      1.0000 0.59130  0.35180  0.59135  Biso   1.000  C
  C20      1.0000 0.70160  0.41710  0.60466  Biso   1.000  C
  H11      1.0000 0.71120  0.50960  0.63410  Biso   1.000  H
  C21      1.0000 0.09790  0.05680  0.74684  Biso   1.000  C
  H12      1.0000 0.02500  0.03500  0.76910  Biso   1.000  H
  C22      1.0000 0.29220  0.99070  0.72118  Biso   1.000  C
  H13      1.0000 0.35670  0.92350  0.72550  Biso   1.000  H
  C23      1.0000 0.11360  0.19180  0.70628  Biso   1.000  C
  H14      1.0000 0.05060  0.26130  0.70150  Biso   1.000  H
  C24      1.0000 0.68800  0.04740  0.25539  Biso   1.000  C
  C25      1.0000 0.77350  0.30010  0.30867  Biso   1.000  C
  C26      1.0000 0.48190  0.42130  0.62193  Biso   1.000  C
  H15      1.0000 0.64200  0.17200  0.35220  Biso   1.000  H
  H16      1.0000 0.80800  0.32400  0.25030  Biso   1.000  H
  H17      1.0000 0.84400  0.25100  0.34080  Biso   1.000  H
  H18      1.0000 0.60700  0.25200  0.26410  Biso   1.000  H
  Cu3      1.0000 0.18652  0.07214  0.98295  Biso   1.000  Cu
  Cu4      1.0000 0.73343  0.57171  0.11303  Biso   1.000  Cu
  O9       1.0000 0.88849  0.62446  0.08238  Biso   1.000  O
  O10      1.0000 0.92189  0.97298  0.91827  Biso   1.000  O
  C27      1.0000 0.82500  0.14350  0.00597  Biso   1.000  C
  C28      1.0000 0.71650  0.07290  0.00294  Biso   1.000  C
  H19      1.0000 0.70620  0.97720  0.97700  Biso   1.000  H
  C29      1.0000 0.13900  0.49710  0.86034  Biso   1.000  C
  H20      1.0000 0.07270  0.55430  0.84080  Biso   1.000  H
  C30      1.0000 0.16770  0.80360  0.79840  Biso   1.000  C
  O11      1.0000 0.45054  0.31656  0.12020  Biso   1.000  O
  N5       1.0000 0.74578  0.35530  0.07510  Biso   1.000  N
  C31      1.0000 0.93180  0.07300  0.97112  Biso   1.000  C
  C32      1.0000 0.24950  0.55280  0.85145  Biso   1.000  C
  C33      1.0000 0.37660  0.88270  0.99660  Biso   1.000  C
  C34      1.0000 0.34220  0.46300  0.88292  Biso   1.000  C
  H21      1.0000 0.42020  0.49660  0.87890  Biso   1.000  H
  C35      1.0000 0.83550  0.28630  0.04279  Biso   1.000  C
  H22      1.0000 0.90910  0.33550  0.04480  Biso   1.000  H
  O12      1.0000 0.57982  0.50067  0.14467  Biso   1.000  O
  O13      1.0000 0.34433  0.00674  0.96197  Biso   1.000  O
  C36      1.0000 0.12380  0.35840  0.89767  Biso   1.000  C
  H23      1.0000 0.04640  0.32320  0.90280  Biso   1.000  H
  O14      1.0000 0.98801  0.48830  0.18124  Biso   1.000  O
  C37      1.0000 0.32120  0.32530  0.91998  Biso   1.000  C
  H24      1.0000 0.38580  0.26690  0.94120  Biso   1.000  H
  O15      1.0000 0.02721  0.12719  0.00433  Biso   1.000  O
  C38      1.0000 0.28060  0.79230  0.03354  Biso   1.000  C
  N6       1.0000 0.21273  0.27120  0.92697  Biso   1.000  N
  N7       1.0000 0.71449  0.77140  0.17325  Biso   1.000  N
  N8       1.0000 0.17417  0.85620  0.02204  Biso   1.000  N
  O16      1.0000 0.47704  0.83379  0.00135  Biso   1.000  O
  C39      1.0000 0.64212  0.28410  0.07388  Biso   1.000  C
  C40      1.0000 0.62360  0.14340  0.03810  Biso   1.000  C
  H25      1.0000 0.54920  0.09640  0.03770  Biso   1.000  H
  C41      1.0000 0.29700  0.65570  0.07409  Biso   1.000  C
  H26      1.0000 0.37260  0.61220  0.08090  Biso   1.000  H
  C42      1.0000 0.80110  0.87270  0.18077  Biso   1.000  C
  H27      1.0000 0.87270  0.84920  0.15700  Biso   1.000  H
  C43      1.0000 0.08190  0.78390  0.04906  Biso   1.000  C
  H28      1.0000 0.00680  0.82740  0.03880  Biso   1.000  H
  C44      1.0000 0.54850  0.37170  0.11513  Biso   1.000  C
  C45      1.0000 0.09130  0.64820  0.09135  Biso   1.000  C
  C46      1.0000 0.20160  0.58290  0.10466  Biso   1.000  C
  H29      1.0000 0.21120  0.49040  0.13410  Biso   1.000  H
  C47      1.0000 0.59790  0.94320  0.24684  Biso   1.000  C
  H30      1.0000 0.52500  0.96500  0.26910  Biso   1.000  H
  C48      1.0000 0.79220  0.00930  0.22118  Biso   1.000  C
  H31      1.0000 0.85670  0.07650  0.22550  Biso   1.000  H
  C49      1.0000 0.61360  0.80820  0.20628  Biso   1.000  C
  H32      1.0000 0.55060  0.73870  0.20150  Biso   1.000  H
  C50      1.0000 0.18800  0.95260  0.75539  Biso   1.000  C
  C51      1.0000 0.27350  0.69990  0.80867  Biso   1.000  C
  C52      1.0000 0.98190  0.57870  0.12193  Biso   1.000  C
  H33      1.0000 0.14200  0.82800  0.85220  Biso   1.000  H
  H34      1.0000 0.30800  0.67600  0.75030  Biso   1.000  H
  H35      1.0000 0.34400  0.74900  0.84080  Biso   1.000  H
  H36      1.0000 0.10700  0.74800  0.76410  Biso   1.000  H
