data_image0
_cell_length_a       8.397
_cell_length_b       17.812
_cell_length_c       31.257
_cell_angle_alpha    90
_cell_angle_beta     94.24
_cell_angle_gamma    90

_symmetry_space_group_name_H-M    "P 1"
_symmetry_int_tables_number       1

loop_
  _symmetry_equiv_pos_as_xyz
  'x, y, z'

loop_
  _atom_site_label
  _atom_site_occupancy
  _atom_site_fract_x
  _atom_site_fract_y
  _atom_site_fract_z
  _atom_site_thermal_displace_type
  _atom_site_B_iso_or_equiv
  _atom_site_type_symbol
  Zn1      1.0000 0.82723  0.12487  0.75379  Biso   1.000  Zn
  N1       1.0000 0.66170  0.06090  0.72216  Biso   1.000  N
  N2       1.0000 0.44870  0.98829  0.70954  Biso   1.000  N
  N3       1.0000 0.89230  0.82920  0.73481  Biso   1.000  N
  N4       1.0000 0.73320  0.73310  0.73920  Biso   1.000  N
  C1       1.0000 0.52990  0.03518  0.73905  Biso   1.000  C
  H1       1.0000 0.49820  0.04690  0.76610  Biso   1.000  H
  C2       1.0000 0.67100  0.03360  0.68338  Biso   1.000  C
  H2       1.0000 0.75470  0.04280  0.66620  Biso   1.000  H
  C3       1.0000 0.54200  0.99020  0.67179  Biso   1.000  C
  H3       1.0000 0.51810  0.96670  0.64550  Biso   1.000  H
  C4       1.0000 0.30110  0.95264  0.71474  Biso   1.000  C
  C5       1.0000 0.25970  0.89379  0.68681  Biso   1.000  C
  H4       1.0000 0.31650  0.88230  0.66320  Biso   1.000  H
  C6       1.0000 0.11710  0.85107  0.69791  Biso   1.000  C
  H5       1.0000 0.09140  0.80760  0.68240  Biso   1.000  H
  C7       1.0000 0.02970  0.86926  0.72654  Biso   1.000  C
  C8       1.0000 0.06050  0.93497  0.74755  Biso   1.000  C
  H6       1.0000 0.98990  0.95280  0.76670  Biso   1.000  H
  C9       1.0000 0.20380  0.97759  0.74018  Biso   1.000  C
  H7       1.0000 0.22360  0.02310  0.75420  Biso   1.000  H
  C10      1.0000 0.87250  0.75540  0.72665  Biso   1.000  C
  H8       1.0000 0.94570  0.72470  0.71410  Biso   1.000  H
  C11      1.0000 0.66140  0.79280  0.75525  Biso   1.000  C
  H9       1.0000 0.56070  0.79380  0.76580  Biso   1.000  H
  C12      1.0000 0.76170  0.85100  0.75333  Biso   1.000  C
  H10      1.0000 0.74320  0.89920  0.76330  Biso   1.000  H
  Zn2      1.0000 0.67277  0.62487  0.74621  Biso   1.000  Zn
  N5       1.0000 0.83830  0.56090  0.77784  Biso   1.000  N
  N6       1.0000 0.05130  0.48829  0.79046  Biso   1.000  N
  N7       1.0000 0.60770  0.32920  0.76519  Biso   1.000  N
  N8       1.0000 0.76680  0.23310  0.76080  Biso   1.000  N
  C13      1.0000 0.97010  0.53518  0.76095  Biso   1.000  C
  H11      1.0000 0.00180  0.54690  0.73390  Biso   1.000  H
  C14      1.0000 0.82900  0.53360  0.81662  Biso   1.000  C
  H12      1.0000 0.74530  0.54280  0.83380  Biso   1.000  H
  C15      1.0000 0.95800  0.49020  0.82821  Biso   1.000  C
  H13      1.0000 0.98190  0.46670  0.85450  Biso   1.000  H
  C16      1.0000 0.19890  0.45264  0.78526  Biso   1.000  C
  C17      1.0000 0.24030  0.39379  0.81319  Biso   1.000  C
  H14      1.0000 0.18350  0.38230  0.83680  Biso   1.000  H
  C18      1.0000 0.38290  0.35107  0.80209  Biso   1.000  C
  H15      1.0000 0.40860  0.30760  0.81760  Biso   1.000  H
  C19      1.0000 0.47030  0.36926  0.77346  Biso   1.000  C
  C20      1.0000 0.43950  0.43497  0.75245  Biso   1.000  C
  H16      1.0000 0.51010  0.45280  0.73330  Biso   1.000  H
  C21      1.0000 0.29620  0.47759  0.75982  Biso   1.000  C
  H17      1.0000 0.27640  0.52310  0.74580  Biso   1.000  H
  C22      1.0000 0.62750  0.25540  0.77335  Biso   1.000  C
  H18      1.0000 0.55430  0.22470  0.78590  Biso   1.000  H
  C23      1.0000 0.83860  0.29280  0.74475  Biso   1.000  C
  H19      1.0000 0.93930  0.29380  0.73420  Biso   1.000  H
  C24      1.0000 0.73830  0.35100  0.74667  Biso   1.000  C
  H20      1.0000 0.75680  0.39920  0.73670  Biso   1.000  H
  Zn3      1.0000 0.17277  0.87513  0.24621  Biso   1.000  Zn
  N9       1.0000 0.33830  0.93910  0.27784  Biso   1.000  N
  N10      1.0000 0.55130  0.01171  0.29046  Biso   1.000  N
  N11      1.0000 0.10770  0.17080  0.26519  Biso   1.000  N
  N12      1.0000 0.26680  0.26690  0.26080  Biso   1.000  N
  C25      1.0000 0.47010  0.96482  0.26095  Biso   1.000  C
  H21      1.0000 0.50180  0.95310  0.23390  Biso   1.000  H
  C26      1.0000 0.32900  0.96640  0.31662  Biso   1.000  C
  H22      1.0000 0.24530  0.95720  0.33380  Biso   1.000  H
  C27      1.0000 0.45800  0.00980  0.32821  Biso   1.000  C
  H23      1.0000 0.48190  0.03330  0.35450  Biso   1.000  H
  C28      1.0000 0.69890  0.04736  0.28526  Biso   1.000  C
  C29      1.0000 0.74030  0.10621  0.31319  Biso   1.000  C
  H24      1.0000 0.68350  0.11770  0.33680  Biso   1.000  H
  C30      1.0000 0.88290  0.14893  0.30209  Biso   1.000  C
  H25      1.0000 0.90860  0.19240  0.31760  Biso   1.000  H
  C31      1.0000 0.97030  0.13074  0.27346  Biso   1.000  C
  C32      1.0000 0.93950  0.06503  0.25245  Biso   1.000  C
  H26      1.0000 0.01010  0.04720  0.23330  Biso   1.000  H
  C33      1.0000 0.79620  0.02241  0.25982  Biso   1.000  C
  H27      1.0000 0.77640  0.97690  0.24580  Biso   1.000  H
  C34      1.0000 0.12750  0.24460  0.27335  Biso   1.000  C
  H28      1.0000 0.05430  0.27530  0.28590  Biso   1.000  H
  C35      1.0000 0.33860  0.20720  0.24475  Biso   1.000  C
  H29      1.0000 0.43930  0.20620  0.23420  Biso   1.000  H
  C36      1.0000 0.23830  0.14900  0.24667  Biso   1.000  C
  H30      1.0000 0.25680  0.10080  0.23670  Biso   1.000  H
  Zn4      1.0000 0.32723  0.37513  0.25379  Biso   1.000  Zn
  N13      1.0000 0.16170  0.43910  0.22216  Biso   1.000  N
  N14      1.0000 0.94870  0.51171  0.20954  Biso   1.000  N
  N15      1.0000 0.39230  0.67080  0.23481  Biso   1.000  N
  N16      1.0000 0.23320  0.76690  0.23920  Biso   1.000  N
  C37      1.0000 0.02990  0.46482  0.23905  Biso   1.000  C
  H31      1.0000 0.99820  0.45310  0.26610  Biso   1.000  H
  C38      1.0000 0.17100  0.46640  0.18338  Biso   1.000  C
  H32      1.0000 0.25470  0.45720  0.16620  Biso   1.000  H
  C39      1.0000 0.04200  0.50980  0.17179  Biso   1.000  C
  H33      1.0000 0.01810  0.53330  0.14550  Biso   1.000  H
  C40      1.0000 0.80110  0.54736  0.21474  Biso   1.000  C
  C41      1.0000 0.75970  0.60621  0.18681  Biso   1.000  C
  H34      1.0000 0.81650  0.61770  0.16320  Biso   1.000  H
  C42      1.0000 0.61710  0.64893  0.19791  Biso   1.000  C
  H35      1.0000 0.59140  0.69240  0.18240  Biso   1.000  H
  C43      1.0000 0.52970  0.63074  0.22654  Biso   1.000  C
  C44      1.0000 0.56050  0.56503  0.24755  Biso   1.000  C
  H36      1.0000 0.48990  0.54720  0.26670  Biso   1.000  H
  C45      1.0000 0.70380  0.52241  0.24018  Biso   1.000  C
  H37      1.0000 0.72360  0.47690  0.25420  Biso   1.000  H
  C46      1.0000 0.37250  0.74460  0.22665  Biso   1.000  C
  H38      1.0000 0.44570  0.77530  0.21410  Biso   1.000  H
  C47      1.0000 0.16140  0.70720  0.25525  Biso   1.000  C
  H39      1.0000 0.06070  0.70620  0.26580  Biso   1.000  H
  C48      1.0000 0.26170  0.64900  0.25333  Biso   1.000  C
  H40      1.0000 0.24320  0.60080  0.26330  Biso   1.000  H
  N17      1.0000 0.38600  0.21810  0.40840  Biso   1.000  N
  N18      1.0000 0.74300  0.35400  0.32550  Biso   1.000  N
  N19      1.0000 0.62280  0.42020  0.51076  Biso   1.000  N
  H41      1.0000 0.54910  0.38660  0.51020  Biso   1.000  H
  O1       1.0000 0.33300  0.20410  0.44250  Biso   1.000  O
  O2       1.0000 0.35800  0.17200  0.38040  Biso   1.000  O
  O3       1.0000 0.71930  0.30600  0.29800  Biso   1.000  O
  O4       1.0000 0.80640  0.41670  0.32360  Biso   1.000  O
  O5       1.0000 0.80110  0.47170  0.46920  Biso   1.000  O
  O6       1.0000 0.60480  0.56680  0.69480  Biso   1.000  O
  O7       1.0000 0.83290  0.61350  0.67780  Biso   1.000  O
  C49      1.0000 0.49770  0.27390  0.40704  Biso   1.000  C
  C50      1.0000 0.56380  0.28710  0.36824  Biso   1.000  C
  H42      1.0000 0.53590  0.25670  0.34470  Biso   1.000  H
  C51      1.0000 0.67150  0.34560  0.36467  Biso   1.000  C
  C52      1.0000 0.71310  0.39100  0.39990  Biso   1.000  C
  H43      1.0000 0.78510  0.43020  0.39750  Biso   1.000  H
  C53      1.0000 0.64700  0.37790  0.43869  Biso   1.000  C
  C54      1.0000 0.53930  0.31940  0.44226  Biso   1.000  C
  H44      1.0000 0.49510  0.31060  0.46820  Biso   1.000  H
  C55      1.0000 0.69540  0.42900  0.47499  Biso   1.000  C
  C56      1.0000 0.65210  0.45951  0.55004  Biso   1.000  C
  C57      1.0000 0.78410  0.50439  0.55813  Biso   1.000  C
  H45      1.0000 0.85820  0.51010  0.53770  Biso   1.000  H
  C58      1.0000 0.80520  0.54113  0.59739  Biso   1.000  C
  H46      1.0000 0.89400  0.57180  0.60300  Biso   1.000  H
  C59      1.0000 0.69350  0.53268  0.62909  Biso   1.000  C
  C60      1.0000 0.56230  0.48133  0.61945  Biso   1.000  C
  H47      1.0000 0.48860  0.47260  0.63970  Biso   1.000  H
  C61      1.0000 0.54650  0.44526  0.58025  Biso   1.000  C
  H48      1.0000 0.46380  0.41120  0.57440  Biso   1.000  H
  C62      1.0000 0.71270  0.57335  0.66917  Biso   1.000  C
  N20      1.0000 0.40220  0.82870  0.00080  Biso   1.000  N
  N21      1.0000 0.41030  0.89680  0.85100  Biso   1.000  N
  N22      1.0000 0.90230  0.72770  0.88410  Biso   1.000  N
  H49      1.0000 0.82110  0.71440  0.86750  Biso   1.000  H
  O8       1.0000 0.48200  0.81300  0.03330  Biso   1.000  O
  O9       1.0000 0.26150  0.84870  0.99890  Biso   1.000  O
  O10      1.0000 0.27570  0.91850  0.85280  Biso   1.000  O
  O11      1.0000 0.48210  0.90240  0.81960  Biso   1.000  O
  O12      1.0000 0.96330  0.76930  0.95189  Biso   1.000  O
  O13      1.0000 0.48620  0.63210  0.77889  Biso   1.000  O
  O14      1.0000 0.62140  0.67340  0.83740  Biso   1.000  O
  C63      1.0000 0.48130  0.82920  0.95940  Biso   1.000  C
  C64      1.0000 0.40990  0.86490  0.92660  Biso   1.000  C
  H50      1.0000 0.31520  0.89130  0.92860  Biso   1.000  H
  C65      1.0000 0.48630  0.86050  0.88860  Biso   1.000  C
  C66      1.0000 0.63360  0.82720  0.88600  Biso   1.000  C
  H51      1.0000 0.68400  0.82850  0.86060  Biso   1.000  H
  C67      1.0000 0.70530  0.79200  0.92180  Biso   1.000  C
  C68      1.0000 0.62930  0.79420  0.95970  Biso   1.000  C
  H52      1.0000 0.67610  0.77280  0.98470  Biso   1.000  H
  C69      1.0000 0.86940  0.76290  0.92140  Biso   1.000  C
  C70      1.0000 0.05060  0.71090  0.87010  Biso   1.000  C
  C71      1.0000 0.05710  0.69470  0.82620  Biso   1.000  C
  H53      1.0000 0.96320  0.69430  0.80850  Biso   1.000  H
  C72      1.0000 0.20060  0.67920  0.80900  Biso   1.000  C
  H54      1.0000 0.20410  0.67080  0.77970  Biso   1.000  H
  C73      1.0000 0.34100  0.67640  0.83630  Biso   1.000  C
  C74      1.0000 0.33080  0.68650  0.87930  Biso   1.000  C
  H55      1.0000 0.42290  0.68270  0.89770  Biso   1.000  H
  C75      1.0000 0.18830  0.70190  0.89620  Biso   1.000  C
  H56      1.0000 0.18480  0.70640  0.92580  Biso   1.000  H
  C76      1.0000 0.49670  0.65880  0.81690  Biso   1.000  C
  N23      1.0000 0.11400  0.71810  0.09160  Biso   1.000  N
  N24      1.0000 0.75700  0.85400  0.17450  Biso   1.000  N
  N25      1.0000 0.87720  0.92020  0.98924  Biso   1.000  N
  H57      1.0000 0.95090  0.88660  0.98980  Biso   1.000  H
  O15      1.0000 0.16700  0.70410  0.05750  Biso   1.000  O
  O16      1.0000 0.14200  0.67200  0.11960  Biso   1.000  O
  O17      1.0000 0.78070  0.80600  0.20200  Biso   1.000  O
  O18      1.0000 0.69360  0.91670  0.17640  Biso   1.000  O
  O19      1.0000 0.69890  0.97170  0.03080  Biso   1.000  O
  O20      1.0000 0.89520  0.06680  0.80520  Biso   1.000  O
  O21      1.0000 0.66710  0.11350  0.82220  Biso   1.000  O
  C77      1.0000 0.00230  0.77390  0.09296  Biso   1.000  C
  C78      1.0000 0.93620  0.78710  0.13176  Biso   1.000  C
  H58      1.0000 0.96410  0.75670  0.15530  Biso   1.000  H
  C79      1.0000 0.82850  0.84560  0.13533  Biso   1.000  C
  C80      1.0000 0.78690  0.89100  0.10010  Biso   1.000  C
  H59      1.0000 0.71490  0.93020  0.10250  Biso   1.000  H
  C81      1.0000 0.85300  0.87790  0.06131  Biso   1.000  C
  C82      1.0000 0.96070  0.81940  0.05774  Biso   1.000  C
  H60      1.0000 0.00490  0.81060  0.03180  Biso   1.000  H
  C83      1.0000 0.80460  0.92900  0.02501  Biso   1.000  C
  C84      1.0000 0.84790  0.95951  0.94996  Biso   1.000  C
  C85      1.0000 0.71590  0.00439  0.94187  Biso   1.000  C
  H61      1.0000 0.64180  0.01010  0.96230  Biso   1.000  H
  C86      1.0000 0.69480  0.04113  0.90261  Biso   1.000  C
  H62      1.0000 0.60600  0.07180  0.89700  Biso   1.000  H
  C87      1.0000 0.80650  0.03268  0.87091  Biso   1.000  C
  C88      1.0000 0.93770  0.98133  0.88055  Biso   1.000  C
  H63      1.0000 0.01140  0.97260  0.86030  Biso   1.000  H
  C89      1.0000 0.95350  0.94526  0.91975  Biso   1.000  C
  H64      1.0000 0.03620  0.91120  0.92560  Biso   1.000  H
  C90      1.0000 0.78730  0.07335  0.83083  Biso   1.000  C
  N26      1.0000 0.09780  0.32870  0.49920  Biso   1.000  N
  N27      1.0000 0.08970  0.39680  0.64900  Biso   1.000  N
  N28      1.0000 0.59770  0.22770  0.61590  Biso   1.000  N
  H65      1.0000 0.67890  0.21440  0.63250  Biso   1.000  H
  O22      1.0000 0.01800  0.31300  0.46670  Biso   1.000  O
  O23      1.0000 0.23850  0.34870  0.50110  Biso   1.000  O
  O24      1.0000 0.22430  0.41850  0.64720  Biso   1.000  O
  O25      1.0000 0.01790  0.40240  0.68040  Biso   1.000  O
  O26      1.0000 0.53670  0.26930  0.54811  Biso   1.000  O
  O27      1.0000 0.01380  0.13210  0.72111  Biso   1.000  O
  O28      1.0000 0.87860  0.17340  0.66260  Biso   1.000  O
  C91      1.0000 0.01870  0.32920  0.54060  Biso   1.000  C
  C92      1.0000 0.09010  0.36490  0.57340  Biso   1.000  C
  H66      1.0000 0.18480  0.39130  0.57140  Biso   1.000  H
  C93      1.0000 0.01370  0.36050  0.61140  Biso   1.000  C
  C94      1.0000 0.86640  0.32720  0.61400  Biso   1.000  C
  H67      1.0000 0.81600  0.32850  0.63940  Biso   1.000  H
  C95      1.0000 0.79470  0.29200  0.57820  Biso   1.000  C
  C96      1.0000 0.87070  0.29420  0.54030  Biso   1.000  C
  H68      1.0000 0.82390  0.27280  0.51530  Biso   1.000  H
  C97      1.0000 0.63060  0.26290  0.57860  Biso   1.000  C
  C98      1.0000 0.44940  0.21090  0.62990  Biso   1.000  C
  C99      1.0000 0.44290  0.19470  0.67380  Biso   1.000  C
  H69      1.0000 0.53680  0.19430  0.69150  Biso   1.000  H
  C100     1.0000 0.29940  0.17920  0.69100  Biso   1.000  C
  H70      1.0000 0.29590  0.17080  0.72030  Biso   1.000  H
  C101     1.0000 0.15900  0.17640  0.66370  Biso   1.000  C
  C102     1.0000 0.16920  0.18650  0.62070  Biso   1.000  C
  H71      1.0000 0.07710  0.18270  0.60230  Biso   1.000  H
  C103     1.0000 0.31170  0.20190  0.60380  Biso   1.000  C
  H72      1.0000 0.31520  0.20640  0.57420  Biso   1.000  H
  C104     1.0000 0.00330  0.15880  0.68310  Biso   1.000  C
  N29      1.0000 0.61400  0.78190  0.59160  Biso   1.000  N
  N30      1.0000 0.25700  0.64600  0.67450  Biso   1.000  N
  N31      1.0000 0.37720  0.57980  0.48924  Biso   1.000  N
  H73      1.0000 0.45090  0.61340  0.48980  Biso   1.000  H
  O29      1.0000 0.66700  0.79590  0.55750  Biso   1.000  O
  O30      1.0000 0.64200  0.82800  0.61960  Biso   1.000  O
  O31      1.0000 0.28070  0.69400  0.70200  Biso   1.000  O
  O32      1.0000 0.19360  0.58330  0.67640  Biso   1.000  O
  O33      1.0000 0.19890  0.52830  0.53080  Biso   1.000  O
  O34      1.0000 0.39520  0.43320  0.30520  Biso   1.000  O
  O35      1.0000 0.16710  0.38650  0.32220  Biso   1.000  O
  C105     1.0000 0.50230  0.72610  0.59296  Biso   1.000  C
  C106     1.0000 0.43620  0.71290  0.63176  Biso   1.000  C
  H74      1.0000 0.46410  0.74330  0.65530  Biso   1.000  H
  C107     1.0000 0.32850  0.65440  0.63533  Biso   1.000  C
  C108     1.0000 0.28690  0.60900  0.60010  Biso   1.000  C
  H75      1.0000 0.21490  0.56980  0.60250  Biso   1.000  H
  C109     1.0000 0.35300  0.62210  0.56131  Biso   1.000  C
  C110     1.0000 0.46070  0.68060  0.55774  Biso   1.000  C
  H76      1.0000 0.50490  0.68940  0.53180  Biso   1.000  H
  C111     1.0000 0.30460  0.57100  0.52501  Biso   1.000  C
  C112     1.0000 0.34790  0.54049  0.44996  Biso   1.000  C
  C113     1.0000 0.21590  0.49561  0.44187  Biso   1.000  C
  H77      1.0000 0.14180  0.48990  0.46230  Biso   1.000  H
  C114     1.0000 0.19480  0.45887  0.40261  Biso   1.000  C
  H78      1.0000 0.10600  0.42820  0.39700  Biso   1.000  H
  C115     1.0000 0.30650  0.46732  0.37091  Biso   1.000  C
  C116     1.0000 0.43770  0.51867  0.38055  Biso   1.000  C
  H79      1.0000 0.51140  0.52740  0.36030  Biso   1.000  H
  C117     1.0000 0.45350  0.55474  0.41975  Biso   1.000  C
  H80      1.0000 0.53620  0.58880  0.42560  Biso   1.000  H
  C118     1.0000 0.28730  0.42665  0.33083  Biso   1.000  C
  N32      1.0000 0.59780  0.17130  0.99920  Biso   1.000  N
  N33      1.0000 0.58970  0.10320  0.14900  Biso   1.000  N
  N34      1.0000 0.09770  0.27230  0.11590  Biso   1.000  N
  H81      1.0000 0.17890  0.28560  0.13250  Biso   1.000  H
  O36      1.0000 0.51800  0.18700  0.96670  Biso   1.000  O
  O37      1.0000 0.73850  0.15130  0.00110  Biso   1.000  O
  O38      1.0000 0.72430  0.08150  0.14720  Biso   1.000  O
  O39      1.0000 0.51790  0.09760  0.18040  Biso   1.000  O
  O40      1.0000 0.03670  0.23070  0.04811  Biso   1.000  O
  O41      1.0000 0.51380  0.36790  0.22111  Biso   1.000  O
  O42      1.0000 0.37860  0.32660  0.16260  Biso   1.000  O
  C119     1.0000 0.51870  0.17080  0.04060  Biso   1.000  C
  C120     1.0000 0.59010  0.13510  0.07340  Biso   1.000  C
  H82      1.0000 0.68480  0.10870  0.07140  Biso   1.000  H
  C121     1.0000 0.51370  0.13950  0.11140  Biso   1.000  C
  C122     1.0000 0.36640  0.17280  0.11400  Biso   1.000  C
  H83      1.0000 0.31600  0.17150  0.13940  Biso   1.000  H
  C123     1.0000 0.29470  0.20800  0.07820  Biso   1.000  C
  C124     1.0000 0.37070  0.20580  0.04030  Biso   1.000  C
  H84      1.0000 0.32390  0.22720  0.01530  Biso   1.000  H
  C125     1.0000 0.13060  0.23710  0.07860  Biso   1.000  C
  C126     1.0000 0.94940  0.28910  0.12990  Biso   1.000  C
  C127     1.0000 0.94290  0.30530  0.17380  Biso   1.000  C
  H85      1.0000 0.03680  0.30570  0.19150  Biso   1.000  H
  C128     1.0000 0.79940  0.32080  0.19100  Biso   1.000  C
  H86      1.0000 0.79590  0.32920  0.22030  Biso   1.000  H
  C129     1.0000 0.65900  0.32360  0.16370  Biso   1.000  C
  C130     1.0000 0.66920  0.31350  0.12070  Biso   1.000  C
  H87      1.0000 0.57710  0.31730  0.10230  Biso   1.000  H
  C131     1.0000 0.81170  0.29810  0.10380  Biso   1.000  C
  H88      1.0000 0.81520  0.29360  0.07420  Biso   1.000  H
  C132     1.0000 0.50330  0.34120  0.18310  Biso   1.000  C
  N35      1.0000 0.88600  0.28190  0.90840  Biso   1.000  N
  N36      1.0000 0.24300  0.14600  0.82550  Biso   1.000  N
  N37      1.0000 0.12280  0.07980  0.01076  Biso   1.000  N
  H89      1.0000 0.04910  0.11340  0.01020  Biso   1.000  H
  O43      1.0000 0.83300  0.29590  0.94250  Biso   1.000  O
  O44      1.0000 0.85800  0.32800  0.88040  Biso   1.000  O
  O45      1.0000 0.21930  0.19400  0.79800  Biso   1.000  O
  O46      1.0000 0.30640  0.08330  0.82360  Biso   1.000  O
  O47      1.0000 0.30110  0.02830  0.96920  Biso   1.000  O
  O48      1.0000 0.10480  0.93320  0.19480  Biso   1.000  O
  O49      1.0000 0.33290  0.88650  0.17780  Biso   1.000  O
  C133     1.0000 0.99770  0.22610  0.90704  Biso   1.000  C
  C134     1.0000 0.06380  0.21290  0.86824  Biso   1.000  C
  H90      1.0000 0.03590  0.24330  0.84470  Biso   1.000  H
  C135     1.0000 0.17150  0.15440  0.86467  Biso   1.000  C
  C136     1.0000 0.21310  0.10900  0.89990  Biso   1.000  C
  H91      1.0000 0.28510  0.06980  0.89750  Biso   1.000  H
  C137     1.0000 0.14700  0.12210  0.93869  Biso   1.000  C
  C138     1.0000 0.03930  0.18060  0.94226  Biso   1.000  C
  H92      1.0000 0.99510  0.18940  0.96820  Biso   1.000  H
  C139     1.0000 0.19540  0.07100  0.97499  Biso   1.000  C
  C140     1.0000 0.15210  0.04049  0.05004  Biso   1.000  C
  C141     1.0000 0.28410  0.99561  0.05813  Biso   1.000  C
  H93      1.0000 0.35820  0.98990  0.03770  Biso   1.000  H
  C142     1.0000 0.30520  0.95887  0.09739  Biso   1.000  C
  H94      1.0000 0.39400  0.92820  0.10300  Biso   1.000  H
  C143     1.0000 0.19350  0.96732  0.12909  Biso   1.000  C
  C144     1.0000 0.06230  0.01867  0.11945  Biso   1.000  C
  H95      1.0000 0.98860  0.02740  0.13970  Biso   1.000  H
  C145     1.0000 0.04650  0.05474  0.08025  Biso   1.000  C
  H96      1.0000 0.96380  0.08880  0.07440  Biso   1.000  H
  C146     1.0000 0.21270  0.92665  0.16917  Biso   1.000  C
  N38      1.0000 0.90220  0.67130  0.50080  Biso   1.000  N
  N39      1.0000 0.91030  0.60320  0.35100  Biso   1.000  N
  N40      1.0000 0.40230  0.77230  0.38410  Biso   1.000  N
  H97      1.0000 0.32110  0.78560  0.36750  Biso   1.000  H
  O50      1.0000 0.98200  0.68700  0.53330  Biso   1.000  O
  O51      1.0000 0.76150  0.65130  0.49890  Biso   1.000  O
  O52      1.0000 0.77570  0.58150  0.35280  Biso   1.000  O
  O53      1.0000 0.98210  0.59760  0.31960  Biso   1.000  O
  O54      1.0000 0.46330  0.73070  0.45189  Biso   1.000  O
  O55      1.0000 0.98620  0.86790  0.27889  Biso   1.000  O
  O56      1.0000 0.12140  0.82660  0.33740  Biso   1.000  O
  C147     1.0000 0.98130  0.67080  0.45940  Biso   1.000  C
  C148     1.0000 0.90990  0.63510  0.42660  Biso   1.000  C
  H98      1.0000 0.81520  0.60870  0.42860  Biso   1.000  H
  C149     1.0000 0.98630  0.63950  0.38860  Biso   1.000  C
  C150     1.0000 0.13360  0.67280  0.38600  Biso   1.000  C
  H99      1.0000 0.18400  0.67150  0.36060  Biso   1.000  H
  C151     1.0000 0.20530  0.70800  0.42180  Biso   1.000  C
  C152     1.0000 0.12930  0.70580  0.45970  Biso   1.000  C
  H100     1.0000 0.17610  0.72720  0.48470  Biso   1.000  H
  C153     1.0000 0.36940  0.73710  0.42140  Biso   1.000  C
  C154     1.0000 0.55060  0.78910  0.37010  Biso   1.000  C
  C155     1.0000 0.55710  0.80530  0.32620  Biso   1.000  C
  H101     1.0000 0.46320  0.80570  0.30850  Biso   1.000  H
  C156     1.0000 0.70060  0.82080  0.30900  Biso   1.000  C
  H102     1.0000 0.70410  0.82920  0.27970  Biso   1.000  H
  C157     1.0000 0.84100  0.82360  0.33630  Biso   1.000  C
  C158     1.0000 0.83080  0.81350  0.37930  Biso   1.000  C
  H103     1.0000 0.92290  0.81730  0.39770  Biso   1.000  H
  C159     1.0000 0.68830  0.79810  0.39620  Biso   1.000  C
  H104     1.0000 0.68480  0.79360  0.42580  Biso   1.000  H
  C160     1.0000 0.99670  0.84120  0.31690  Biso   1.000  C
