data_image0
_cell_length_a       10.3809
_cell_length_b       11.8849
_cell_length_c       14.2792
_cell_angle_alpha    107.443
_cell_angle_beta     94.911
_cell_angle_gamma    100.765

_symmetry_space_group_name_H-M    "P 1"
_symmetry_int_tables_number       1

loop_
  _symmetry_equiv_pos_as_xyz
  'x, y, z'

loop_
  _atom_site_label
  _atom_site_occupancy
  _atom_site_fract_x
  _atom_site_fract_y
  _atom_site_fract_z
  _atom_site_thermal_displace_type
  _atom_site_B_iso_or_equiv
  _atom_site_type_symbol
  Cu1      1.0000 0.74960  0.53580  0.26239  Biso   1.000  Cu
  N1       1.0000 0.18010  0.59240  0.69620  Biso   1.000  N
  N2       1.0000 0.07140  0.71870  0.66040  Biso   1.000  N
  N3       1.0000 0.95160  0.76400  0.53010  Biso   1.000  N
  N4       1.0000 0.86280  0.66980  0.46670  Biso   1.000  N
  N5       1.0000 0.87350  0.67150  0.37700  Biso   1.000  N
  N6       1.0000 0.69450  0.66980  0.21700  Biso   1.000  N
  N7       1.0000 0.71510  0.67230  0.12860  Biso   1.000  N
  N8       1.0000 0.67510  0.76670  0.11430  Biso   1.000  N
  N9       1.0000 0.54360  0.72330  0.95510  Biso   1.000  N
  N10      1.0000 0.37870  0.59550  0.84850  Biso   1.000  N
  C1       1.0000 0.73130  0.36610  0.58780  Biso   1.000  C
  H1       1.0000 0.68150  0.32270  0.52300  Biso   1.000  H
  H2       1.0000 0.67670  0.40990  0.62900  Biso   1.000  H
  H3       1.0000 0.75930  0.31010  0.61710  Biso   1.000  H
  C2       1.0000 0.85250  0.45460  0.57880  Biso   1.000  C
  H4       1.0000 0.82410  0.50720  0.54480  Biso   1.000  H
  H5       1.0000 0.90900  0.40980  0.53910  Biso   1.000  H
  C3       1.0000 0.93290  0.53240  0.68100  Biso   1.000  C
  H6       1.0000 0.87850  0.58300  0.71740  Biso   1.000  H
  H7       1.0000 0.95100  0.47900  0.71770  Biso   1.000  H
  C4       1.0000 0.06100  0.61150  0.67840  Biso   1.000  C
  C5       1.0000 0.27070  0.69000  0.68880  Biso   1.000  C
  H8       1.0000 0.36240  0.69950  0.69710  Biso   1.000  H
  C6       1.0000 0.20490  0.76820  0.66770  Biso   1.000  C
  H9       1.0000 0.24180  0.84160  0.65950  Biso   1.000  H
  C7       1.0000 0.96830  0.77560  0.63610  Biso   1.000  C
  H10      1.0000 0.99050  0.86060  0.67560  Biso   1.000  H
  H11      1.0000 0.88550  0.73840  0.65230  Biso   1.000  H
  C8       1.0000 0.02480  0.82900  0.48050  Biso   1.000  C
  C9       1.0000 0.12760  0.93250  0.51040  Biso   1.000  C
  H12      1.0000 0.16100  0.97360  0.57700  Biso   1.000  H
  C10      1.0000 0.17630  0.97010  0.43590  Biso   1.000  C
  H13      1.0000 0.24620  0.03760  0.45240  Biso   1.000  H
  C11      1.0000 0.12410  0.90980  0.33520  Biso   1.000  C
  H14      1.0000 0.15950  0.93960  0.28740  Biso   1.000  H
  C12      1.0000 0.02240  0.80820  0.30500  Biso   1.000  C
  H15      1.0000 0.98860  0.76830  0.23830  Biso   1.000  H
  C13      1.0000 0.97280  0.76850  0.38000  Biso   1.000  C
  C14      1.0000 0.63720  0.76370  0.26100  Biso   1.000  C
  C15      1.0000 0.59020  0.79650  0.35310  Biso   1.000  C
  H16      1.0000 0.59830  0.75460  0.39810  Biso   1.000  H
  C16      1.0000 0.53180  0.89370  0.37210  Biso   1.000  C
  H17      1.0000 0.49710  0.91720  0.43100  Biso   1.000  H
  C17      1.0000 0.52250  0.95940  0.30530  Biso   1.000  C
  H18      1.0000 0.48360  0.02580  0.32250  Biso   1.000  H
  C18      1.0000 0.56840  0.92930  0.21600  Biso   1.000  C
  H19      1.0000 0.56230  0.97320  0.17240  Biso   1.000  H
  C19      1.0000 0.62540  0.82790  0.19450  Biso   1.000  C
  C20      1.0000 0.67360  0.78000  0.01490  Biso   1.000  C
  H20      1.0000 0.69500  0.86530  0.02130  Biso   1.000  H
  H21      1.0000 0.74030  0.74280  0.98220  Biso   1.000  H
  C21      1.0000 0.43450  0.77300  0.96840  Biso   1.000  C
  H22      1.0000 0.43190  0.84710  0.01380  Biso   1.000  H
  C22      1.0000 0.33320  0.69460  0.90370  Biso   1.000  C
  H23      1.0000 0.24650  0.70440  0.89650  Biso   1.000  H
  C23      1.0000 0.50570  0.61490  0.88110  Biso   1.000  C
  C24      1.0000 0.59830  0.53470  0.84220  Biso   1.000  C
  H24      1.0000 0.68000  0.58510  0.83600  Biso   1.000  H
  H25      1.0000 0.55860  0.48110  0.77610  Biso   1.000  H
  C25      1.0000 0.63300  0.45790  0.90500  Biso   1.000  C
  H26      1.0000 0.55190  0.41090  0.91560  Biso   1.000  H
  H27      1.0000 0.68040  0.51050  0.96930  Biso   1.000  H
  C26      1.0000 0.71850  0.37230  0.85530  Biso   1.000  C
  H28      1.0000 0.75970  0.34330  0.90350  Biso   1.000  H
  H29      1.0000 0.78580  0.41480  0.82830  Biso   1.000  H
  H30      1.0000 0.66380  0.30500  0.80280  Biso   1.000  H
  Cu2      1.0000 0.25040  0.46420  0.73761  Biso   1.000  Cu
  N11      1.0000 0.81990  0.40760  0.30380  Biso   1.000  N
  N12      1.0000 0.92860  0.28130  0.33960  Biso   1.000  N
  N13      1.0000 0.04840  0.23600  0.46990  Biso   1.000  N
  N14      1.0000 0.13720  0.33020  0.53330  Biso   1.000  N
  N15      1.0000 0.12650  0.32850  0.62300  Biso   1.000  N
  N16      1.0000 0.30550  0.33020  0.78300  Biso   1.000  N
  N17      1.0000 0.28490  0.32770  0.87140  Biso   1.000  N
  N18      1.0000 0.32490  0.23330  0.88570  Biso   1.000  N
  N19      1.0000 0.45640  0.27670  0.04490  Biso   1.000  N
  N20      1.0000 0.62130  0.40450  0.15150  Biso   1.000  N
  C27      1.0000 0.26870  0.63390  0.41220  Biso   1.000  C
  H31      1.0000 0.31850  0.67730  0.47700  Biso   1.000  H
  H32      1.0000 0.32330  0.59010  0.37100  Biso   1.000  H
  H33      1.0000 0.24070  0.68990  0.38290  Biso   1.000  H
  C28      1.0000 0.14750  0.54540  0.42120  Biso   1.000  C
  H34      1.0000 0.17590  0.49280  0.45520  Biso   1.000  H
  H35      1.0000 0.09100  0.59020  0.46090  Biso   1.000  H
  C29      1.0000 0.06710  0.46760  0.31900  Biso   1.000  C
  H36      1.0000 0.12150  0.41700  0.28260  Biso   1.000  H
  H37      1.0000 0.04900  0.52100  0.28230  Biso   1.000  H
  C30      1.0000 0.93900  0.38850  0.32160  Biso   1.000  C
  C31      1.0000 0.72930  0.31000  0.31120  Biso   1.000  C
  H38      1.0000 0.63760  0.30050  0.30290  Biso   1.000  H
  C32      1.0000 0.79510  0.23180  0.33230  Biso   1.000  C
  H39      1.0000 0.75820  0.15840  0.34050  Biso   1.000  H
  C33      1.0000 0.03170  0.22440  0.36390  Biso   1.000  C
  H40      1.0000 0.00950  0.13940  0.32440  Biso   1.000  H
  H41      1.0000 0.11450  0.26160  0.34770  Biso   1.000  H
  C34      1.0000 0.97520  0.17100  0.51950  Biso   1.000  C
  C35      1.0000 0.87240  0.06750  0.48960  Biso   1.000  C
  H42      1.0000 0.83900  0.02640  0.42300  Biso   1.000  H
  C36      1.0000 0.82370  0.02990  0.56410  Biso   1.000  C
  H43      1.0000 0.75380  0.96240  0.54760  Biso   1.000  H
  C37      1.0000 0.87590  0.09020  0.66480  Biso   1.000  C
  H44      1.0000 0.84050  0.06040  0.71260  Biso   1.000  H
  C38      1.0000 0.97760  0.19180  0.69500  Biso   1.000  C
  H45      1.0000 0.01140  0.23170  0.76170  Biso   1.000  H
  C39      1.0000 0.02720  0.23150  0.62000  Biso   1.000  C
  C40      1.0000 0.36280  0.23630  0.73900  Biso   1.000  C
  C41      1.0000 0.40980  0.20350  0.64690  Biso   1.000  C
  H46      1.0000 0.40170  0.24540  0.60190  Biso   1.000  H
  C42      1.0000 0.46820  0.10630  0.62790  Biso   1.000  C
  H47      1.0000 0.50290  0.08280  0.56900  Biso   1.000  H
  C43      1.0000 0.47750  0.04060  0.69470  Biso   1.000  C
  H48      1.0000 0.51640  0.97420  0.67750  Biso   1.000  H
  C44      1.0000 0.43160  0.07070  0.78400  Biso   1.000  C
  H49      1.0000 0.43770  0.02680  0.82760  Biso   1.000  H
  C45      1.0000 0.37460  0.17210  0.80550  Biso   1.000  C
  C46      1.0000 0.32640  0.22000  0.98510  Biso   1.000  C
  H50      1.0000 0.30500  0.13470  0.97870  Biso   1.000  H
  H51      1.0000 0.25970  0.25720  0.01780  Biso   1.000  H
  C47      1.0000 0.56550  0.22700  0.03160  Biso   1.000  C
  H52      1.0000 0.56810  0.15290  0.98620  Biso   1.000  H
  C48      1.0000 0.66680  0.30540  0.09630  Biso   1.000  C
  H53      1.0000 0.75350  0.29560  0.10350  Biso   1.000  H
  C49      1.0000 0.49430  0.38510  0.11890  Biso   1.000  C
  C50      1.0000 0.40170  0.46530  0.15780  Biso   1.000  C
  H54      1.0000 0.32000  0.41490  0.16400  Biso   1.000  H
  H55      1.0000 0.44140  0.51890  0.22390  Biso   1.000  H
  C51      1.0000 0.36700  0.54210  0.09500  Biso   1.000  C
  H56      1.0000 0.44810  0.58910  0.08440  Biso   1.000  H
  H57      1.0000 0.31960  0.48950  0.03070  Biso   1.000  H
  C52      1.0000 0.28150  0.62770  0.14470  Biso   1.000  C
  H58      1.0000 0.24030  0.65670  0.09650  Biso   1.000  H
  H59      1.0000 0.21420  0.58520  0.17170  Biso   1.000  H
  H60      1.0000 0.33620  0.69500  0.19720  Biso   1.000  H
