data_image0
_cell_length_a       9.4931
_cell_length_b       12.5507
_cell_length_c       13.415
_cell_angle_alpha    90
_cell_angle_beta     95.5687
_cell_angle_gamma    90

_symmetry_space_group_name_H-M    "P 1"
_symmetry_int_tables_number       1

loop_
  _symmetry_equiv_pos_as_xyz
  'x, y, z'

loop_
  _atom_site_label
  _atom_site_occupancy
  _atom_site_fract_x
  _atom_site_fract_y
  _atom_site_fract_z
  _atom_site_thermal_displace_type
  _atom_site_B_iso_or_equiv
  _atom_site_type_symbol
  N1       1.0000 0.78375  0.47031  0.36139  Biso   1.000  N
  N2       1.0000 0.86558  0.59335  0.46752  Biso   1.000  N
  N3       1.0000 0.90789  0.78129  0.46653  Biso   1.000  N
  N4       1.0000 0.77036  0.81305  0.45482  Biso   1.000  N
  N5       1.0000 0.76300  0.90449  0.41020  Biso   1.000  N
  C1       1.0000 0.70440  0.47086  0.44264  Biso   1.000  C
  H1       1.0000 0.62880  0.42570  0.45080  Biso   1.000  H
  C2       1.0000 0.75320  0.54639  0.50777  Biso   1.000  C
  H2       1.0000 0.71800  0.56360  0.56810  Biso   1.000  H
  C3       1.0000 0.94710  0.68143  0.51464  Biso   1.000  C
  H3       1.0000 0.93080  0.68540  0.58480  Biso   1.000  H
  H4       1.0000 0.04710  0.66860  0.51080  Biso   1.000  H
  C4       1.0000 0.99181  0.85525  0.42708  Biso   1.000  C
  C5       1.0000 0.89720  0.93433  0.39137  Biso   1.000  C
  C6       1.0000 0.94680  0.02642  0.34689  Biso   1.000  C
  H5       1.0000 0.88540  0.08050  0.32330  Biso   1.000  H
  C7       1.0000 0.08840  0.03323  0.33981  Biso   1.000  C
  H6       1.0000 0.12440  0.09350  0.31090  Biso   1.000  H
  C8       1.0000 0.18160  0.95206  0.37480  Biso   1.000  C
  H7       1.0000 0.27750  0.95970  0.36740  Biso   1.000  H
  C9       1.0000 0.13670  0.86181  0.41954  Biso   1.000  C
  H8       1.0000 0.19890  0.80840  0.44330  Biso   1.000  H
  C10      1.0000 0.88080  0.54587  0.37787  Biso   1.000  C
  C11      1.0000 0.98875  0.57654  0.30981  Biso   1.000  C
  H9       1.0000 0.01280  0.51410  0.27230  Biso   1.000  H
  H10      1.0000 0.07380  0.59930  0.35010  Biso   1.000  H
  C12      1.0000 0.94230  0.66546  0.23566  Biso   1.000  C
  H11      1.0000 0.85980  0.64200  0.19300  Biso   1.000  H
  H12      1.0000 0.91530  0.72750  0.27260  Biso   1.000  H
  C13      1.0000 0.05720  0.69660  0.17101  Biso   1.000  C
  H13      1.0000 0.02250  0.75140  0.12500  Biso   1.000  H
  H14      1.0000 0.08430  0.63560  0.13420  Biso   1.000  H
  H15      1.0000 0.13770  0.72270  0.21270  Biso   1.000  H
  N6       1.0000 0.71625  0.47031  0.13861  Biso   1.000  N
  N7       1.0000 0.63442  0.59335  0.03248  Biso   1.000  N
  N8       1.0000 0.59211  0.78129  0.03347  Biso   1.000  N
  N9       1.0000 0.72964  0.81305  0.04518  Biso   1.000  N
  N10      1.0000 0.73700  0.90449  0.08980  Biso   1.000  N
  C14      1.0000 0.79560  0.47086  0.05736  Biso   1.000  C
  H16      1.0000 0.87120  0.42570  0.04920  Biso   1.000  H
  C15      1.0000 0.74680  0.54639  0.99223  Biso   1.000  C
  H17      1.0000 0.78200  0.56360  0.93190  Biso   1.000  H
  C16      1.0000 0.55290  0.68143  0.98536  Biso   1.000  C
  H18      1.0000 0.56920  0.68540  0.91520  Biso   1.000  H
  H19      1.0000 0.45290  0.66860  0.98920  Biso   1.000  H
  C17      1.0000 0.50819  0.85525  0.07292  Biso   1.000  C
  C18      1.0000 0.60280  0.93433  0.10863  Biso   1.000  C
  C19      1.0000 0.55320  0.02642  0.15311  Biso   1.000  C
  H20      1.0000 0.61460  0.08050  0.17670  Biso   1.000  H
  C20      1.0000 0.41160  0.03323  0.16019  Biso   1.000  C
  H21      1.0000 0.37560  0.09350  0.18910  Biso   1.000  H
  C21      1.0000 0.31840  0.95206  0.12520  Biso   1.000  C
  H22      1.0000 0.22250  0.95970  0.13260  Biso   1.000  H
  C22      1.0000 0.36330  0.86181  0.08046  Biso   1.000  C
  H23      1.0000 0.30110  0.80840  0.05670  Biso   1.000  H
  C23      1.0000 0.61920  0.54587  0.12213  Biso   1.000  C
  C24      1.0000 0.51125  0.57654  0.19019  Biso   1.000  C
  H24      1.0000 0.48720  0.51410  0.22770  Biso   1.000  H
  H25      1.0000 0.42620  0.59930  0.14990  Biso   1.000  H
  C25      1.0000 0.55770  0.66546  0.26434  Biso   1.000  C
  H26      1.0000 0.64020  0.64200  0.30700  Biso   1.000  H
  H27      1.0000 0.58470  0.72750  0.22740  Biso   1.000  H
  C26      1.0000 0.44280  0.69660  0.32899  Biso   1.000  C
  H28      1.0000 0.47750  0.75140  0.37500  Biso   1.000  H
  H29      1.0000 0.41570  0.63560  0.36580  Biso   1.000  H
  H30      1.0000 0.36230  0.72270  0.28730  Biso   1.000  H
  Cu1      1.0000 0.75000  0.36415  0.25000  Biso   1.000  Cu
  N11      1.0000 0.21625  0.52969  0.63861  Biso   1.000  N
  N12      1.0000 0.13442  0.40665  0.53248  Biso   1.000  N
  N13      1.0000 0.09211  0.21871  0.53347  Biso   1.000  N
  N14      1.0000 0.22964  0.18695  0.54518  Biso   1.000  N
  N15      1.0000 0.23700  0.09551  0.58980  Biso   1.000  N
  C27      1.0000 0.29560  0.52914  0.55736  Biso   1.000  C
  H31      1.0000 0.37120  0.57430  0.54920  Biso   1.000  H
  C28      1.0000 0.24680  0.45361  0.49223  Biso   1.000  C
  H32      1.0000 0.28200  0.43640  0.43190  Biso   1.000  H
  C29      1.0000 0.05290  0.31857  0.48536  Biso   1.000  C
  H33      1.0000 0.06920  0.31460  0.41520  Biso   1.000  H
  H34      1.0000 0.95290  0.33140  0.48920  Biso   1.000  H
  C30      1.0000 0.00819  0.14475  0.57292  Biso   1.000  C
  C31      1.0000 0.10280  0.06567  0.60863  Biso   1.000  C
  C32      1.0000 0.05320  0.97358  0.65311  Biso   1.000  C
  H35      1.0000 0.11460  0.91950  0.67670  Biso   1.000  H
  C33      1.0000 0.91160  0.96677  0.66019  Biso   1.000  C
  H36      1.0000 0.87560  0.90650  0.68910  Biso   1.000  H
  C34      1.0000 0.81840  0.04794  0.62520  Biso   1.000  C
  H37      1.0000 0.72250  0.04030  0.63260  Biso   1.000  H
  C35      1.0000 0.86330  0.13819  0.58046  Biso   1.000  C
  H38      1.0000 0.80110  0.19160  0.55670  Biso   1.000  H
  C36      1.0000 0.11920  0.45413  0.62213  Biso   1.000  C
  C37      1.0000 0.01125  0.42346  0.69019  Biso   1.000  C
  H39      1.0000 0.98720  0.48590  0.72770  Biso   1.000  H
  H40      1.0000 0.92620  0.40070  0.64990  Biso   1.000  H
  C38      1.0000 0.05770  0.33454  0.76434  Biso   1.000  C
  H41      1.0000 0.14020  0.35800  0.80700  Biso   1.000  H
  H42      1.0000 0.08470  0.27250  0.72740  Biso   1.000  H
  C39      1.0000 0.94280  0.30340  0.82899  Biso   1.000  C
  H43      1.0000 0.97750  0.24860  0.87500  Biso   1.000  H
  H44      1.0000 0.91570  0.36440  0.86580  Biso   1.000  H
  H45      1.0000 0.86230  0.27730  0.78730  Biso   1.000  H
  N16      1.0000 0.28375  0.52969  0.86139  Biso   1.000  N
  N17      1.0000 0.36558  0.40665  0.96752  Biso   1.000  N
  N18      1.0000 0.40789  0.21871  0.96653  Biso   1.000  N
  N19      1.0000 0.27036  0.18695  0.95482  Biso   1.000  N
  N20      1.0000 0.26300  0.09551  0.91020  Biso   1.000  N
  C40      1.0000 0.20440  0.52914  0.94264  Biso   1.000  C
  H46      1.0000 0.12880  0.57430  0.95080  Biso   1.000  H
  C41      1.0000 0.25320  0.45361  0.00777  Biso   1.000  C
  H47      1.0000 0.21800  0.43640  0.06810  Biso   1.000  H
  C42      1.0000 0.44710  0.31857  0.01464  Biso   1.000  C
  H48      1.0000 0.43080  0.31460  0.08480  Biso   1.000  H
  H49      1.0000 0.54710  0.33140  0.01080  Biso   1.000  H
  C43      1.0000 0.49181  0.14475  0.92708  Biso   1.000  C
  C44      1.0000 0.39720  0.06567  0.89137  Biso   1.000  C
  C45      1.0000 0.44680  0.97358  0.84689  Biso   1.000  C
  H50      1.0000 0.38540  0.91950  0.82330  Biso   1.000  H
  C46      1.0000 0.58840  0.96677  0.83981  Biso   1.000  C
  H51      1.0000 0.62440  0.90650  0.81090  Biso   1.000  H
  C47      1.0000 0.68160  0.04794  0.87480  Biso   1.000  C
  H52      1.0000 0.77750  0.04030  0.86740  Biso   1.000  H
  C48      1.0000 0.63670  0.13819  0.91954  Biso   1.000  C
  H53      1.0000 0.69890  0.19160  0.94330  Biso   1.000  H
  C49      1.0000 0.38080  0.45413  0.87787  Biso   1.000  C
  C50      1.0000 0.48875  0.42346  0.80981  Biso   1.000  C
  H54      1.0000 0.51280  0.48590  0.77230  Biso   1.000  H
  H55      1.0000 0.57380  0.40070  0.85010  Biso   1.000  H
  C51      1.0000 0.44230  0.33454  0.73566  Biso   1.000  C
  H56      1.0000 0.35980  0.35800  0.69300  Biso   1.000  H
  H57      1.0000 0.41530  0.27250  0.77260  Biso   1.000  H
  C52      1.0000 0.55720  0.30340  0.67101  Biso   1.000  C
  H58      1.0000 0.52250  0.24860  0.62500  Biso   1.000  H
  H59      1.0000 0.58430  0.36440  0.63420  Biso   1.000  H
  H60      1.0000 0.63770  0.27730  0.71270  Biso   1.000  H
  Cu2      1.0000 0.25000  0.63585  0.75000  Biso   1.000  Cu
