data_image0
_cell_length_a       18.2988
_cell_length_b       8.929
_cell_length_c       15.5317
_cell_angle_alpha    90
_cell_angle_beta     90
_cell_angle_gamma    90

_symmetry_space_group_name_H-M    "P 1"
_symmetry_int_tables_number       1

loop_
  _symmetry_equiv_pos_as_xyz
  'x, y, z'

loop_
  _atom_site_label
  _atom_site_occupancy
  _atom_site_fract_x
  _atom_site_fract_y
  _atom_site_fract_z
  _atom_site_thermal_displace_type
  _atom_site_B_iso_or_equiv
  _atom_site_type_symbol
  Cd1      1.0000 0.42416  0.27667  0.15501  Biso   1.000  Cd
  O1       1.0000 0.56415  0.33880  0.15510  Biso   1.000  O
  O2       1.0000 0.82770  0.77050  0.06030  Biso   1.000  O
  O3       1.0000 0.66890  0.79130  0.79480  Biso   1.000  O
  C1       1.0000 0.79610  0.64970  0.07910  Biso   1.000  C
  C2       1.0000 0.72370  0.61470  0.03640  Biso   1.000  C
  C3       1.0000 0.62590  0.70170  0.82760  Biso   1.000  C
  C4       1.0000 0.55020  0.39610  0.08470  Biso   1.000  C
  O4       1.0000 0.48851  0.38440  0.04900  Biso   1.000  O
  C5       1.0000 0.70680  0.67370  0.95690  Biso   1.000  C
  H1       1.0000 0.73980  0.73830  0.93040  Biso   1.000  H
  O5       1.0000 0.56941  0.65440  0.79060  Biso   1.000  O
  O6       1.0000 0.82217  0.55750  0.13100  Biso   1.000  O
  C6       1.0000 0.60770  0.48870  0.03860  Biso   1.000  C
  C7       1.0000 0.59290  0.54450  0.95670  Biso   1.000  C
  H2       1.0000 0.54960  0.51800  0.92920  Biso   1.000  H
  C8       1.0000 0.64210  0.63930  0.91550  Biso   1.000  C
  C9       1.0000 0.67430  0.52130  0.07670  Biso   1.000  C
  H3       1.0000 0.68580  0.47990  0.13000  Biso   1.000  H
  Cd2      1.0000 0.57584  0.72333  0.65501  Biso   1.000  Cd
  O7       1.0000 0.43585  0.66120  0.65510  Biso   1.000  O
  O8       1.0000 0.17230  0.22950  0.56030  Biso   1.000  O
  O9       1.0000 0.33110  0.20870  0.29480  Biso   1.000  O
  C10      1.0000 0.20390  0.35030  0.57910  Biso   1.000  C
  C11      1.0000 0.27630  0.38530  0.53640  Biso   1.000  C
  C12      1.0000 0.37410  0.29830  0.32760  Biso   1.000  C
  C13      1.0000 0.44980  0.60390  0.58470  Biso   1.000  C
  O10      1.0000 0.51149  0.61560  0.54900  Biso   1.000  O
  C14      1.0000 0.29320  0.32630  0.45690  Biso   1.000  C
  H4       1.0000 0.26020  0.26170  0.43040  Biso   1.000  H
  O11      1.0000 0.43059  0.34560  0.29060  Biso   1.000  O
  O12      1.0000 0.17783  0.44250  0.63100  Biso   1.000  O
  C15      1.0000 0.39230  0.51130  0.53860  Biso   1.000  C
  C16      1.0000 0.40710  0.45550  0.45670  Biso   1.000  C
  H5       1.0000 0.45040  0.48200  0.42920  Biso   1.000  H
  C17      1.0000 0.35790  0.36070  0.41550  Biso   1.000  C
  C18      1.0000 0.32570  0.47870  0.57670  Biso   1.000  C
  H6       1.0000 0.31420  0.52010  0.63000  Biso   1.000  H
  Cd3      1.0000 0.92416  0.72333  0.15501  Biso   1.000  Cd
  O13      1.0000 0.06415  0.66120  0.15510  Biso   1.000  O
  O14      1.0000 0.32770  0.22950  0.06030  Biso   1.000  O
  O15      1.0000 0.16890  0.20870  0.79480  Biso   1.000  O
  C19      1.0000 0.29610  0.35030  0.07910  Biso   1.000  C
  C20      1.0000 0.22370  0.38530  0.03640  Biso   1.000  C
  C21      1.0000 0.12590  0.29830  0.82760  Biso   1.000  C
  C22      1.0000 0.05020  0.60390  0.08470  Biso   1.000  C
  O16      1.0000 0.98851  0.61560  0.04900  Biso   1.000  O
  C23      1.0000 0.20680  0.32630  0.95690  Biso   1.000  C
  H7       1.0000 0.23980  0.26170  0.93040  Biso   1.000  H
  O17      1.0000 0.06941  0.34560  0.79060  Biso   1.000  O
  O18      1.0000 0.32217  0.44250  0.13100  Biso   1.000  O
  C24      1.0000 0.10770  0.51130  0.03860  Biso   1.000  C
  C25      1.0000 0.09290  0.45550  0.95670  Biso   1.000  C
  H8       1.0000 0.04960  0.48200  0.92920  Biso   1.000  H
  C26      1.0000 0.14210  0.36070  0.91550  Biso   1.000  C
  C27      1.0000 0.17430  0.47870  0.07670  Biso   1.000  C
  H9       1.0000 0.18580  0.52010  0.13000  Biso   1.000  H
  Cd4      1.0000 0.07584  0.27667  0.65501  Biso   1.000  Cd
  O19      1.0000 0.93585  0.33880  0.65510  Biso   1.000  O
  O20      1.0000 0.67230  0.77050  0.56030  Biso   1.000  O
  O21      1.0000 0.83110  0.79130  0.29480  Biso   1.000  O
  C28      1.0000 0.70390  0.64970  0.57910  Biso   1.000  C
  C29      1.0000 0.77630  0.61470  0.53640  Biso   1.000  C
  C30      1.0000 0.87410  0.70170  0.32760  Biso   1.000  C
  C31      1.0000 0.94980  0.39610  0.58470  Biso   1.000  C
  O22      1.0000 0.01149  0.38440  0.54900  Biso   1.000  O
  C32      1.0000 0.79320  0.67370  0.45690  Biso   1.000  C
  H10      1.0000 0.76020  0.73830  0.43040  Biso   1.000  H
  O23      1.0000 0.93059  0.65440  0.29060  Biso   1.000  O
  O24      1.0000 0.67783  0.55750  0.63100  Biso   1.000  O
  C33      1.0000 0.89230  0.48870  0.53860  Biso   1.000  C
  C34      1.0000 0.90710  0.54450  0.45670  Biso   1.000  C
  H11      1.0000 0.95040  0.51800  0.42920  Biso   1.000  H
  C35      1.0000 0.85790  0.63930  0.41550  Biso   1.000  C
  C36      1.0000 0.82570  0.52130  0.57670  Biso   1.000  C
  H12      1.0000 0.81420  0.47990  0.63000  Biso   1.000  H
