data_image0
_cell_length_a       7.4832
_cell_length_b       10.9344
_cell_length_c       11.4824
_cell_angle_alpha    111.817
_cell_angle_beta     99.39
_cell_angle_gamma    100.699

_symmetry_space_group_name_H-M    "P 1"
_symmetry_int_tables_number       1

loop_
  _symmetry_equiv_pos_as_xyz
  'x, y, z'

loop_
  _atom_site_label
  _atom_site_occupancy
  _atom_site_fract_x
  _atom_site_fract_y
  _atom_site_fract_z
  _atom_site_thermal_displace_type
  _atom_site_B_iso_or_equiv
  _atom_site_type_symbol
  Dy1      1.0000 0.66324  0.75660  0.66476  Biso   1.000  Dy
  C1       1.0000 0.43990  0.56700  0.34220  Biso   1.000  C
  C2       1.0000 0.40390  0.62710  0.24450  Biso   1.000  C
  C3       1.0000 0.43260  0.76880  0.28740  Biso   1.000  C
  H1       1.0000 0.48490  0.82620  0.37470  Biso   1.000  H
  C4       1.0000 0.38220  0.82320  0.19860  Biso   1.000  C
  C5       1.0000 0.38590  0.97180  0.24520  Biso   1.000  C
  C6       1.0000 0.30810  0.73710  0.06760  Biso   1.000  C
  H2       1.0000 0.27500  0.77390  0.00870  Biso   1.000  H
  C7       1.0000 0.28270  0.59570  0.02350  Biso   1.000  C
  C8       1.0000 0.33080  0.54170  0.11360  Biso   1.000  C
  H3       1.0000 0.31360  0.44790  0.08550  Biso   1.000  H
  C9       1.0000 0.19540  0.50740  0.88540  Biso   1.000  C
  O1       1.0000 0.49300  0.64762  0.45987  Biso   1.000  O
  O2       1.0000 0.41120  0.43973  0.30007  Biso   1.000  O
  O3       1.0000 0.47480  0.05673  0.35782  Biso   1.000  O
  O4       1.0000 0.28730  0.00977  0.17002  Biso   1.000  O
  N1       1.0000 0.11380  0.37330  0.83678  Biso   1.000  N
  N2       1.0000 0.04500  0.33520  0.70950  Biso   1.000  N
  N3       1.0000 0.08610  0.44120  0.68230  Biso   1.000  N
  N4       1.0000 0.18250  0.55230  0.79150  Biso   1.000  N
  Dy2      1.0000 0.33676  0.24340  0.33524  Biso   1.000  Dy
  C10      1.0000 0.56010  0.43300  0.65780  Biso   1.000  C
  C11      1.0000 0.59610  0.37290  0.75550  Biso   1.000  C
  C12      1.0000 0.56740  0.23120  0.71260  Biso   1.000  C
  H4       1.0000 0.51510  0.17380  0.62530  Biso   1.000  H
  C13      1.0000 0.61780  0.17680  0.80140  Biso   1.000  C
  C14      1.0000 0.61410  0.02820  0.75480  Biso   1.000  C
  C15      1.0000 0.69190  0.26290  0.93240  Biso   1.000  C
  H5       1.0000 0.72500  0.22610  0.99130  Biso   1.000  H
  C16      1.0000 0.71730  0.40430  0.97650  Biso   1.000  C
  C17      1.0000 0.66920  0.45830  0.88640  Biso   1.000  C
  H6       1.0000 0.68640  0.55210  0.91450  Biso   1.000  H
  C18      1.0000 0.80460  0.49260  0.11460  Biso   1.000  C
  O5       1.0000 0.50700  0.35238  0.54013  Biso   1.000  O
  O6       1.0000 0.58880  0.56027  0.69993  Biso   1.000  O
  O7       1.0000 0.52520  0.94327  0.64218  Biso   1.000  O
  O8       1.0000 0.71270  0.99023  0.82998  Biso   1.000  O
  N5       1.0000 0.88620  0.62670  0.16322  Biso   1.000  N
  N6       1.0000 0.95500  0.66480  0.29050  Biso   1.000  N
  N7       1.0000 0.91390  0.55880  0.31770  Biso   1.000  N
  N8       1.0000 0.81750  0.44770  0.20850  Biso   1.000  N
