data_image0
_cell_length_a       8.319
_cell_length_b       18.261
_cell_length_c       30.925
_cell_angle_alpha    90
_cell_angle_beta     93.84
_cell_angle_gamma    90

_symmetry_space_group_name_H-M    "P 1"
_symmetry_int_tables_number       1

loop_
  _symmetry_equiv_pos_as_xyz
  'x, y, z'

loop_
  _atom_site_label
  _atom_site_occupancy
  _atom_site_fract_x
  _atom_site_fract_y
  _atom_site_fract_z
  _atom_site_thermal_displace_type
  _atom_site_B_iso_or_equiv
  _atom_site_type_symbol
  C1       1.0000 0.25380  0.84370  0.25333  Biso   1.000  C
  N1       1.0000 0.26080  0.72360  0.25998  Biso   1.000  N
  C2       1.0000 0.12300  0.74787  0.27246  Biso   1.000  C
  N2       1.0000 0.11200  0.82060  0.26888  Biso   1.000  N
  Co1      1.0000 0.18124  0.11770  0.24759  Biso   1.000  Co
  N3       1.0000 0.34810  0.05307  0.27869  Biso   1.000  N
  N4       1.0000 0.55710  0.98260  0.29399  Biso   1.000  N
  C3       1.0000 0.97510  0.86377  0.27681  Biso   1.000  C
  C4       1.0000 0.94700  0.92772  0.25518  Biso   1.000  C
  H1       1.0000 0.01980  0.94430  0.23580  Biso   1.000  H
  C5       1.0000 0.81150  0.96802  0.26179  Biso   1.000  C
  H2       1.0000 0.79500  0.01270  0.24770  Biso   1.000  H
  C6       1.0000 0.70170  0.94322  0.28868  Biso   1.000  C
  C7       1.0000 0.73240  0.88113  0.31190  Biso   1.000  C
  H3       1.0000 0.65980  0.86510  0.33150  Biso   1.000  H
  C8       1.0000 0.87090  0.84193  0.30647  Biso   1.000  C
  H4       1.0000 0.89360  0.80030  0.32310  Biso   1.000  H
  H5       1.0000 0.04050  0.71830  0.28220  Biso   1.000  H
  H6       1.0000 0.28100  0.89210  0.24750  Biso   1.000  H
  C9       1.0000 0.34270  0.78411  0.24804  Biso   1.000  C
  H7       1.0000 0.44520  0.78380  0.23770  Biso   1.000  H
  C10      1.0000 0.47940  0.02549  0.26418  Biso   1.000  C
  H8       1.0000 0.51430  0.03450  0.23670  Biso   1.000  H
  C11      1.0000 0.34050  0.02639  0.31963  Biso   1.000  C
  H9       1.0000 0.25930  0.03660  0.33800  Biso   1.000  H
  C12      1.0000 0.46740  0.98331  0.32934  Biso   1.000  C
  H10      1.0000 0.49040  0.95850  0.35530  Biso   1.000  H
  C13      1.0000 0.24620  0.34370  0.24667  Biso   1.000  C
  N5       1.0000 0.23920  0.22360  0.24002  Biso   1.000  N
  C14      1.0000 0.37700  0.24787  0.22754  Biso   1.000  C
  N6       1.0000 0.38800  0.32060  0.23112  Biso   1.000  N
  Co2      1.0000 0.31876  0.61770  0.25241  Biso   1.000  Co
  N7       1.0000 0.15190  0.55307  0.22131  Biso   1.000  N
  N8       1.0000 0.94290  0.48260  0.20601  Biso   1.000  N
  C15      1.0000 0.52490  0.36377  0.22319  Biso   1.000  C
  C16      1.0000 0.55300  0.42772  0.24482  Biso   1.000  C
  H11      1.0000 0.48020  0.44430  0.26420  Biso   1.000  H
  C17      1.0000 0.68850  0.46802  0.23821  Biso   1.000  C
  H12      1.0000 0.70500  0.51270  0.25230  Biso   1.000  H
  C18      1.0000 0.79830  0.44322  0.21132  Biso   1.000  C
  C19      1.0000 0.76760  0.38113  0.18810  Biso   1.000  C
  H13      1.0000 0.84020  0.36510  0.16850  Biso   1.000  H
  C20      1.0000 0.62910  0.34193  0.19353  Biso   1.000  C
  H14      1.0000 0.60640  0.30030  0.17690  Biso   1.000  H
  H15      1.0000 0.45950  0.21830  0.21780  Biso   1.000  H
  H16      1.0000 0.21900  0.39210  0.25250  Biso   1.000  H
  C21      1.0000 0.15730  0.28411  0.25196  Biso   1.000  C
  H17      1.0000 0.05480  0.28380  0.26230  Biso   1.000  H
  C22      1.0000 0.02060  0.52549  0.23582  Biso   1.000  C
  H18      1.0000 0.98570  0.53450  0.26330  Biso   1.000  H
  C23      1.0000 0.15950  0.52639  0.18037  Biso   1.000  C
  H19      1.0000 0.24070  0.53660  0.16200  Biso   1.000  H
  C24      1.0000 0.03260  0.48331  0.17066  Biso   1.000  C
  H20      1.0000 0.00960  0.45850  0.14470  Biso   1.000  H
  C25      1.0000 0.74620  0.15630  0.74667  Biso   1.000  C
  N9       1.0000 0.73920  0.27640  0.74002  Biso   1.000  N
  C26      1.0000 0.87700  0.25213  0.72754  Biso   1.000  C
  N10      1.0000 0.88800  0.17940  0.73112  Biso   1.000  N
  Co3      1.0000 0.81876  0.88230  0.75241  Biso   1.000  Co
  N11      1.0000 0.65190  0.94693  0.72131  Biso   1.000  N
  N12      1.0000 0.44290  0.01740  0.70601  Biso   1.000  N
  C27      1.0000 0.02490  0.13623  0.72319  Biso   1.000  C
  C28      1.0000 0.05300  0.07228  0.74482  Biso   1.000  C
  H21      1.0000 0.98020  0.05570  0.76420  Biso   1.000  H
  C29      1.0000 0.18850  0.03198  0.73821  Biso   1.000  C
  H22      1.0000 0.20500  0.98730  0.75230  Biso   1.000  H
  C30      1.0000 0.29830  0.05678  0.71132  Biso   1.000  C
  C31      1.0000 0.26760  0.11887  0.68810  Biso   1.000  C
  H23      1.0000 0.34020  0.13490  0.66850  Biso   1.000  H
  C32      1.0000 0.12910  0.15807  0.69353  Biso   1.000  C
  H24      1.0000 0.10640  0.19970  0.67690  Biso   1.000  H
  H25      1.0000 0.95950  0.28170  0.71780  Biso   1.000  H
  H26      1.0000 0.71900  0.10790  0.75250  Biso   1.000  H
  C33      1.0000 0.65730  0.21589  0.75196  Biso   1.000  C
  H27      1.0000 0.55480  0.21620  0.76230  Biso   1.000  H
  C34      1.0000 0.52060  0.97451  0.73582  Biso   1.000  C
  H28      1.0000 0.48570  0.96550  0.76330  Biso   1.000  H
  C35      1.0000 0.65950  0.97361  0.68037  Biso   1.000  C
  H29      1.0000 0.74070  0.96340  0.66200  Biso   1.000  H
  C36      1.0000 0.53260  0.01669  0.67066  Biso   1.000  C
  H30      1.0000 0.50960  0.04150  0.64470  Biso   1.000  H
  C37      1.0000 0.75380  0.65630  0.75333  Biso   1.000  C
  N13      1.0000 0.76080  0.77640  0.75998  Biso   1.000  N
  C38      1.0000 0.62300  0.75213  0.77246  Biso   1.000  C
  N14      1.0000 0.61200  0.67940  0.76888  Biso   1.000  N
  Co4      1.0000 0.68124  0.38230  0.74759  Biso   1.000  Co
  N15      1.0000 0.84810  0.44693  0.77869  Biso   1.000  N
  N16      1.0000 0.05710  0.51740  0.79399  Biso   1.000  N
  C39      1.0000 0.47510  0.63623  0.77681  Biso   1.000  C
  C40      1.0000 0.44700  0.57228  0.75518  Biso   1.000  C
  H31      1.0000 0.51980  0.55570  0.73580  Biso   1.000  H
  C41      1.0000 0.31150  0.53198  0.76179  Biso   1.000  C
  H32      1.0000 0.29500  0.48730  0.74770  Biso   1.000  H
  C42      1.0000 0.20170  0.55678  0.78868  Biso   1.000  C
  C43      1.0000 0.23240  0.61887  0.81190  Biso   1.000  C
  H33      1.0000 0.15980  0.63490  0.83150  Biso   1.000  H
  C44      1.0000 0.37090  0.65807  0.80647  Biso   1.000  C
  H34      1.0000 0.39360  0.69970  0.82310  Biso   1.000  H
  H35      1.0000 0.54050  0.78170  0.78220  Biso   1.000  H
  H36      1.0000 0.78100  0.60790  0.74750  Biso   1.000  H
  C45      1.0000 0.84270  0.71589  0.74804  Biso   1.000  C
  H37      1.0000 0.94520  0.71620  0.73770  Biso   1.000  H
  C46      1.0000 0.97940  0.47451  0.76418  Biso   1.000  C
  H38      1.0000 0.01430  0.46550  0.73670  Biso   1.000  H
  C47      1.0000 0.84050  0.47361  0.81963  Biso   1.000  C
  H39      1.0000 0.75930  0.46340  0.83800  Biso   1.000  H
  C48      1.0000 0.96740  0.51669  0.82934  Biso   1.000  C
  H40      1.0000 0.99040  0.54150  0.85530  Biso   1.000  H
  N17      1.0000 0.61830  0.22018  0.59297  Biso   1.000  N
  N18      1.0000 0.26470  0.36590  0.67667  Biso   1.000  N
  N19      1.0000 0.38290  0.42124  0.48920  Biso   1.000  N
  H41      1.0000 0.46420  0.38110  0.48470  Biso   1.000  H
  O1       1.0000 0.67860  0.21000  0.55913  Biso   1.000  O
  O2       1.0000 0.64730  0.18340  0.62526  Biso   1.000  O
  O3       1.0000 0.28390  0.32099  0.70547  Biso   1.000  O
  O4       1.0000 0.19040  0.42180  0.67975  Biso   1.000  O
  O5       1.0000 0.20030  0.47296  0.53013  Biso   1.000  O
  O6       1.0000 0.40943  0.55969  0.30255  Biso   1.000  O
  O7       1.0000 0.17150  0.60017  0.31706  Biso   1.000  O
  C49      1.0000 0.36080  0.37921  0.56223  Biso   1.000  C
  C50      1.0000 0.46680  0.32244  0.55968  Biso   1.000  C
  H42      1.0000 0.51140  0.31180  0.53360  Biso   1.000  H
  C51      1.0000 0.50720  0.28095  0.59617  Biso   1.000  C
  C52      1.0000 0.44350  0.29414  0.63475  Biso   1.000  C
  H43      1.0000 0.47140  0.26580  0.65910  Biso   1.000  H
  C53      1.0000 0.33790  0.35021  0.63631  Biso   1.000  C
  C54      1.0000 0.29460  0.39317  0.60148  Biso   1.000  C
  H44      1.0000 0.22170  0.43130  0.60390  Biso   1.000  H
  C55      1.0000 0.30600  0.42880  0.52583  Biso   1.000  C
  C56      1.0000 0.35220  0.45774  0.44959  Biso   1.000  C
  C57      1.0000 0.45940  0.44534  0.41830  Biso   1.000  C
  H45      1.0000 0.54560  0.41370  0.42410  Biso   1.000  H
  C58      1.0000 0.44060  0.47890  0.37888  Biso   1.000  C
  H46      1.0000 0.51480  0.47060  0.35820  Biso   1.000  H
  C59      1.0000 0.31180  0.52522  0.36951  Biso   1.000  C
  C60      1.0000 0.20180  0.53534  0.40045  Biso   1.000  C
  H47      1.0000 0.11250  0.56500  0.39400  Biso   1.000  H
  C61      1.0000 0.22070  0.50281  0.44035  Biso   1.000  C
  H48      1.0000 0.14610  0.51090  0.46100  Biso   1.000  H
  C62      1.0000 0.29440  0.56382  0.32750  Biso   1.000  C
  N20      1.0000 0.58170  0.89443  0.15170  Biso   1.000  N
  N21      1.0000 0.59440  0.83569  0.99942  Biso   1.000  N
  N22      1.0000 0.09070  0.72767  0.11354  Biso   1.000  N
  H49      1.0000 0.18140  0.71590  0.13100  Biso   1.000  H
  O8       1.0000 0.50490  0.89815  0.18335  Biso   1.000  O
  O9       1.0000 0.71720  0.91610  0.15016  Biso   1.000  O
  O10      1.0000 0.73430  0.85467  0.00126  Biso   1.000  O
  O11      1.0000 0.51740  0.81935  0.96620  Biso   1.000  O
  O12      1.0000 0.02865  0.77308  0.04631  Biso   1.000  O
  O13      1.0000 0.50222  0.62535  0.21691  Biso   1.000  O
  O14      1.0000 0.36439  0.67037  0.15964  Biso   1.000  O
  C63      1.0000 0.28940  0.79447  0.07791  Biso   1.000  C
  C64      1.0000 0.36120  0.82636  0.11480  Biso   1.000  C
  H50      1.0000 0.31180  0.82440  0.14090  Biso   1.000  H
  C65      1.0000 0.50650  0.86099  0.11243  Biso   1.000  C
  C66      1.0000 0.58520  0.86504  0.07520  Biso   1.000  C
  H51      1.0000 0.68400  0.88870  0.07430  Biso   1.000  H
  C67      1.0000 0.51180  0.83271  0.03954  Biso   1.000  C
  C68      1.0000 0.36570  0.79797  0.03983  Biso   1.000  C
  H52      1.0000 0.31880  0.77710  0.01460  Biso   1.000  H
  C69      1.0000 0.12330  0.76318  0.07741  Biso   1.000  C
  C70      1.0000 0.93900  0.70737  0.12715  Biso   1.000  C
  C71      1.0000 0.93400  0.68892  0.16995  Biso   1.000  C
  H53      1.0000 0.02840  0.68880  0.18780  Biso   1.000  H
  C72      1.0000 0.79120  0.67060  0.18663  Biso   1.000  C
  H54      1.0000 0.78990  0.65760  0.21570  Biso   1.000  H
  C73      1.0000 0.64890  0.67108  0.16089  Biso   1.000  C
  C74      1.0000 0.65600  0.68859  0.11807  Biso   1.000  C
  H55      1.0000 0.56150  0.68870  0.10020  Biso   1.000  H
  C75      1.0000 0.79980  0.70611  0.10058  Biso   1.000  C
  H56      1.0000 0.80230  0.71690  0.07120  Biso   1.000  H
  C76      1.0000 0.49280  0.65485  0.17974  Biso   1.000  C
  N23      1.0000 0.88170  0.72018  0.90703  Biso   1.000  N
  N24      1.0000 0.23530  0.86590  0.82333  Biso   1.000  N
  N25      1.0000 0.11710  0.92124  0.01080  Biso   1.000  N
  H57      1.0000 0.03580  0.88110  0.01530  Biso   1.000  H
  O15      1.0000 0.82140  0.71000  0.94087  Biso   1.000  O
  O16      1.0000 0.85270  0.68340  0.87474  Biso   1.000  O
  O17      1.0000 0.21610  0.82099  0.79453  Biso   1.000  O
  O18      1.0000 0.30960  0.92180  0.82025  Biso   1.000  O
  O19      1.0000 0.29970  0.97296  0.96987  Biso   1.000  O
  O20      1.0000 0.09057  0.05969  0.19745  Biso   1.000  O
  O21      1.0000 0.32850  0.10017  0.18294  Biso   1.000  O
  C77      1.0000 0.13920  0.87921  0.93777  Biso   1.000  C
  C78      1.0000 0.03320  0.82244  0.94032  Biso   1.000  C
  H58      1.0000 0.98860  0.81180  0.96640  Biso   1.000  H
  C79      1.0000 0.99280  0.78095  0.90383  Biso   1.000  C
  C80      1.0000 0.05650  0.79414  0.86525  Biso   1.000  C
  H59      1.0000 0.02860  0.76580  0.84090  Biso   1.000  H
  C81      1.0000 0.16210  0.85021  0.86369  Biso   1.000  C
  C82      1.0000 0.20540  0.89317  0.89852  Biso   1.000  C
  H60      1.0000 0.27830  0.93130  0.89610  Biso   1.000  H
  C83      1.0000 0.19400  0.92880  0.97417  Biso   1.000  C
  C84      1.0000 0.14780  0.95774  0.05041  Biso   1.000  C
  C85      1.0000 0.04060  0.94534  0.08170  Biso   1.000  C
  H61      1.0000 0.95440  0.91370  0.07590  Biso   1.000  H
  C86      1.0000 0.05940  0.97890  0.12112  Biso   1.000  C
  H62      1.0000 0.98520  0.97060  0.14180  Biso   1.000  H
  C87      1.0000 0.18820  0.02522  0.13049  Biso   1.000  C
  C88      1.0000 0.29820  0.03534  0.09955  Biso   1.000  C
  H63      1.0000 0.38750  0.06500  0.10600  Biso   1.000  H
  C89      1.0000 0.27930  0.00281  0.05965  Biso   1.000  C
  H64      1.0000 0.35390  0.01090  0.03900  Biso   1.000  H
  C90      1.0000 0.20560  0.06382  0.17250  Biso   1.000  C
  N26      1.0000 0.91830  0.39443  0.34830  Biso   1.000  N
  N27      1.0000 0.90560  0.33569  0.50058  Biso   1.000  N
  N28      1.0000 0.40930  0.22767  0.38646  Biso   1.000  N
  H65      1.0000 0.31860  0.21590  0.36900  Biso   1.000  H
  O22      1.0000 0.99510  0.39815  0.31665  Biso   1.000  O
  O23      1.0000 0.78280  0.41610  0.34984  Biso   1.000  O
  O24      1.0000 0.76570  0.35467  0.49874  Biso   1.000  O
  O25      1.0000 0.98260  0.31935  0.53380  Biso   1.000  O
  O26      1.0000 0.47135  0.27308  0.45369  Biso   1.000  O
  O27      1.0000 0.99778  0.12535  0.28309  Biso   1.000  O
  O28      1.0000 0.13561  0.17037  0.34036  Biso   1.000  O
  C91      1.0000 0.21060  0.29447  0.42209  Biso   1.000  C
  C92      1.0000 0.13880  0.32636  0.38520  Biso   1.000  C
  H66      1.0000 0.18820  0.32440  0.35910  Biso   1.000  H
  C93      1.0000 0.99350  0.36099  0.38757  Biso   1.000  C
  C94      1.0000 0.91480  0.36504  0.42480  Biso   1.000  C
  H67      1.0000 0.81600  0.38870  0.42570  Biso   1.000  H
  C95      1.0000 0.98820  0.33271  0.46046  Biso   1.000  C
  C96      1.0000 0.13430  0.29797  0.46017  Biso   1.000  C
  H68      1.0000 0.18120  0.27710  0.48540  Biso   1.000  H
  C97      1.0000 0.37670  0.26318  0.42259  Biso   1.000  C
  C98      1.0000 0.56100  0.20737  0.37285  Biso   1.000  C
  C99      1.0000 0.56600  0.18892  0.33005  Biso   1.000  C
  H69      1.0000 0.47160  0.18880  0.31220  Biso   1.000  H
  C100     1.0000 0.70880  0.17060  0.31337  Biso   1.000  C
  H70      1.0000 0.71010  0.15760  0.28430  Biso   1.000  H
  C101     1.0000 0.85110  0.17108  0.33911  Biso   1.000  C
  C102     1.0000 0.84400  0.18859  0.38193  Biso   1.000  C
  H71      1.0000 0.93850  0.18870  0.39980  Biso   1.000  H
  C103     1.0000 0.70020  0.20611  0.39942  Biso   1.000  C
  H72      1.0000 0.69770  0.21690  0.42880  Biso   1.000  H
  C104     1.0000 0.00720  0.15485  0.32026  Biso   1.000  C
  N29      1.0000 0.38170  0.77982  0.40703  Biso   1.000  N
  N30      1.0000 0.73530  0.63410  0.32333  Biso   1.000  N
  N31      1.0000 0.61710  0.57876  0.51080  Biso   1.000  N
  H73      1.0000 0.53580  0.61890  0.51530  Biso   1.000  H
  O29      1.0000 0.32140  0.79000  0.44087  Biso   1.000  O
  O30      1.0000 0.35270  0.81660  0.37474  Biso   1.000  O
  O31      1.0000 0.71610  0.67901  0.29453  Biso   1.000  O
  O32      1.0000 0.80960  0.57820  0.32025  Biso   1.000  O
  O33      1.0000 0.79970  0.52704  0.46987  Biso   1.000  O
  O34      1.0000 0.59057  0.44031  0.69745  Biso   1.000  O
  O35      1.0000 0.82850  0.39983  0.68294  Biso   1.000  O
  C105     1.0000 0.63920  0.62079  0.43777  Biso   1.000  C
  C106     1.0000 0.53320  0.67756  0.44032  Biso   1.000  C
  H74      1.0000 0.48860  0.68820  0.46640  Biso   1.000  H
  C107     1.0000 0.49280  0.71905  0.40383  Biso   1.000  C
  C108     1.0000 0.55650  0.70586  0.36525  Biso   1.000  C
  H75      1.0000 0.52860  0.73420  0.34090  Biso   1.000  H
  C109     1.0000 0.66210  0.64979  0.36369  Biso   1.000  C
  C110     1.0000 0.70540  0.60683  0.39852  Biso   1.000  C
  H76      1.0000 0.77830  0.56870  0.39610  Biso   1.000  H
  C111     1.0000 0.69400  0.57120  0.47417  Biso   1.000  C
  C112     1.0000 0.64780  0.54226  0.55041  Biso   1.000  C
  C113     1.0000 0.54060  0.55466  0.58170  Biso   1.000  C
  H77      1.0000 0.45440  0.58630  0.57590  Biso   1.000  H
  C114     1.0000 0.55940  0.52110  0.62112  Biso   1.000  C
  H78      1.0000 0.48520  0.52940  0.64180  Biso   1.000  H
  C115     1.0000 0.68820  0.47478  0.63049  Biso   1.000  C
  C116     1.0000 0.79820  0.46466  0.59955  Biso   1.000  C
  H79      1.0000 0.88750  0.43500  0.60600  Biso   1.000  H
  C117     1.0000 0.77930  0.49719  0.55965  Biso   1.000  C
  H80      1.0000 0.85390  0.48910  0.53900  Biso   1.000  H
  C118     1.0000 0.70560  0.43618  0.67250  Biso   1.000  C
  N32      1.0000 0.41830  0.10557  0.84830  Biso   1.000  N
  N33      1.0000 0.40560  0.16431  0.00058  Biso   1.000  N
  N34      1.0000 0.90930  0.27233  0.88646  Biso   1.000  N
  H81      1.0000 0.81860  0.28410  0.86900  Biso   1.000  H
  O36      1.0000 0.49510  0.10185  0.81665  Biso   1.000  O
  O37      1.0000 0.28280  0.08390  0.84984  Biso   1.000  O
  O38      1.0000 0.26570  0.14533  0.99874  Biso   1.000  O
  O39      1.0000 0.48260  0.18065  0.03380  Biso   1.000  O
  O40      1.0000 0.97135  0.22692  0.95369  Biso   1.000  O
  O41      1.0000 0.49778  0.37465  0.78309  Biso   1.000  O
  O42      1.0000 0.63561  0.32963  0.84036  Biso   1.000  O
  C119     1.0000 0.71060  0.20553  0.92209  Biso   1.000  C
  C120     1.0000 0.63880  0.17364  0.88520  Biso   1.000  C
  H82      1.0000 0.68820  0.17560  0.85910  Biso   1.000  H
  C121     1.0000 0.49350  0.13901  0.88757  Biso   1.000  C
  C122     1.0000 0.41480  0.13496  0.92480  Biso   1.000  C
  H83      1.0000 0.31600  0.11130  0.92570  Biso   1.000  H
  C123     1.0000 0.48820  0.16729  0.96046  Biso   1.000  C
  C124     1.0000 0.63430  0.20203  0.96017  Biso   1.000  C
  H84      1.0000 0.68120  0.22290  0.98540  Biso   1.000  H
  C125     1.0000 0.87670  0.23682  0.92259  Biso   1.000  C
  C126     1.0000 0.06100  0.29263  0.87285  Biso   1.000  C
  C127     1.0000 0.06600  0.31108  0.83005  Biso   1.000  C
  H85      1.0000 0.97160  0.31120  0.81220  Biso   1.000  H
  C128     1.0000 0.20880  0.32940  0.81337  Biso   1.000  C
  H86      1.0000 0.21010  0.34240  0.78430  Biso   1.000  H
  C129     1.0000 0.35110  0.32892  0.83911  Biso   1.000  C
  C130     1.0000 0.34400  0.31141  0.88193  Biso   1.000  C
  H87      1.0000 0.43850  0.31130  0.89980  Biso   1.000  H
  C131     1.0000 0.20020  0.29389  0.89942  Biso   1.000  C
  H88      1.0000 0.19770  0.28310  0.92880  Biso   1.000  H
  C132     1.0000 0.50720  0.34515  0.82026  Biso   1.000  C
  N35      1.0000 0.11830  0.27982  0.09297  Biso   1.000  N
  N36      1.0000 0.76470  0.13410  0.17667  Biso   1.000  N
  N37      1.0000 0.88290  0.07876  0.98920  Biso   1.000  N
  H89      1.0000 0.96420  0.11890  0.98470  Biso   1.000  H
  O43      1.0000 0.17860  0.29000  0.05913  Biso   1.000  O
  O44      1.0000 0.14730  0.31660  0.12526  Biso   1.000  O
  O45      1.0000 0.78390  0.17901  0.20547  Biso   1.000  O
  O46      1.0000 0.69040  0.07820  0.17975  Biso   1.000  O
  O47      1.0000 0.70030  0.02704  0.03013  Biso   1.000  O
  O48      1.0000 0.90943  0.94031  0.80255  Biso   1.000  O
  O49      1.0000 0.67150  0.89983  0.81706  Biso   1.000  O
  C133     1.0000 0.86080  0.12079  0.06223  Biso   1.000  C
  C134     1.0000 0.96680  0.17756  0.05968  Biso   1.000  C
  H90      1.0000 0.01140  0.18820  0.03360  Biso   1.000  H
  C135     1.0000 0.00720  0.21905  0.09617  Biso   1.000  C
  C136     1.0000 0.94350  0.20586  0.13475  Biso   1.000  C
  H91      1.0000 0.97140  0.23420  0.15910  Biso   1.000  H
  C137     1.0000 0.83790  0.14979  0.13631  Biso   1.000  C
  C138     1.0000 0.79460  0.10683  0.10148  Biso   1.000  C
  H92      1.0000 0.72170  0.06870  0.10390  Biso   1.000  H
  C139     1.0000 0.80600  0.07120  0.02583  Biso   1.000  C
  C140     1.0000 0.85220  0.04226  0.94959  Biso   1.000  C
  C141     1.0000 0.95940  0.05466  0.91830  Biso   1.000  C
  H93      1.0000 0.04560  0.08630  0.92410  Biso   1.000  H
  C142     1.0000 0.94060  0.02110  0.87888  Biso   1.000  C
  H94      1.0000 0.01480  0.02940  0.85820  Biso   1.000  H
  C143     1.0000 0.81180  0.97478  0.86951  Biso   1.000  C
  C144     1.0000 0.70180  0.96466  0.90045  Biso   1.000  C
  H95      1.0000 0.61250  0.93500  0.89400  Biso   1.000  H
  C145     1.0000 0.72070  0.99719  0.94035  Biso   1.000  C
  H96      1.0000 0.64610  0.98910  0.96100  Biso   1.000  H
  C146     1.0000 0.79440  0.93618  0.82750  Biso   1.000  C
  N38      1.0000 0.08170  0.60557  0.65170  Biso   1.000  N
  N39      1.0000 0.09440  0.66431  0.49942  Biso   1.000  N
  N40      1.0000 0.59070  0.77233  0.61354  Biso   1.000  N
  H97      1.0000 0.68140  0.78410  0.63100  Biso   1.000  H
  O50      1.0000 0.00490  0.60185  0.68335  Biso   1.000  O
  O51      1.0000 0.21720  0.58390  0.65016  Biso   1.000  O
  O52      1.0000 0.23430  0.64533  0.50126  Biso   1.000  O
  O53      1.0000 0.01740  0.68065  0.46620  Biso   1.000  O
  O54      1.0000 0.52865  0.72692  0.54631  Biso   1.000  O
  O55      1.0000 0.00222  0.87465  0.71691  Biso   1.000  O
  O56      1.0000 0.86439  0.82963  0.65964  Biso   1.000  O
  C147     1.0000 0.78940  0.70553  0.57791  Biso   1.000  C
  C148     1.0000 0.86120  0.67364  0.61480  Biso   1.000  C
  H98      1.0000 0.81180  0.67560  0.64090  Biso   1.000  H
  C149     1.0000 0.00650  0.63901  0.61243  Biso   1.000  C
  C150     1.0000 0.08520  0.63496  0.57520  Biso   1.000  C
  H99      1.0000 0.18400  0.61130  0.57430  Biso   1.000  H
  C151     1.0000 0.01180  0.66729  0.53954  Biso   1.000  C
  C152     1.0000 0.86570  0.70203  0.53983  Biso   1.000  C
  H100     1.0000 0.81880  0.72290  0.51460  Biso   1.000  H
  C153     1.0000 0.62330  0.73682  0.57741  Biso   1.000  C
  C154     1.0000 0.43900  0.79263  0.62715  Biso   1.000  C
  C155     1.0000 0.43400  0.81108  0.66995  Biso   1.000  C
  H101     1.0000 0.52840  0.81120  0.68780  Biso   1.000  H
  C156     1.0000 0.29120  0.82940  0.68663  Biso   1.000  C
  H102     1.0000 0.28990  0.84240  0.71570  Biso   1.000  H
  C157     1.0000 0.14890  0.82892  0.66089  Biso   1.000  C
  C158     1.0000 0.15600  0.81141  0.61807  Biso   1.000  C
  H103     1.0000 0.06150  0.81130  0.60020  Biso   1.000  H
  C159     1.0000 0.29980  0.79389  0.60058  Biso   1.000  C
  H104     1.0000 0.30230  0.78310  0.57120  Biso   1.000  H
  C160     1.0000 0.99280  0.84515  0.67974  Biso   1.000  C
