data_image0
_cell_length_a       20.076
_cell_length_b       11.329
_cell_length_c       23.937
_cell_angle_alpha    90
_cell_angle_beta     95.272
_cell_angle_gamma    90

_symmetry_space_group_name_H-M    "P 1"
_symmetry_int_tables_number       1

loop_
  _symmetry_equiv_pos_as_xyz
  'x, y, z'

loop_
  _atom_site_label
  _atom_site_occupancy
  _atom_site_fract_x
  _atom_site_fract_y
  _atom_site_fract_z
  _atom_site_thermal_displace_type
  _atom_site_B_iso_or_equiv
  _atom_site_type_symbol
  C1       1.0000 0.65490  0.54130  0.51440  Biso   1.000  C
  H1       1.0000 0.65470  0.46420  0.52780  Biso   1.000  H
  C2       1.0000 0.71510  0.59950  0.51750  Biso   1.000  C
  H2       1.0000 0.75390  0.56190  0.53250  Biso   1.000  H
  C3       1.0000 0.71790  0.71570  0.49810  Biso   1.000  C
  C4       1.0000 0.65800  0.76310  0.47490  Biso   1.000  C
  H3       1.0000 0.65710  0.83910  0.46010  Biso   1.000  H
  C5       1.0000 0.59940  0.69790  0.47360  Biso   1.000  C
  H4       1.0000 0.55990  0.73270  0.45820  Biso   1.000  H
  N1       1.0000 0.59660  0.58710  0.49352  Biso   1.000  N
  C6       1.0000 0.15490  0.04130  0.51440  Biso   1.000  C
  H5       1.0000 0.15470  0.96420  0.52780  Biso   1.000  H
  C7       1.0000 0.21510  0.09950  0.51750  Biso   1.000  C
  H6       1.0000 0.25390  0.06190  0.53250  Biso   1.000  H
  C8       1.0000 0.21790  0.21570  0.49810  Biso   1.000  C
  C9       1.0000 0.15800  0.26310  0.47490  Biso   1.000  C
  H7       1.0000 0.15710  0.33910  0.46010  Biso   1.000  H
  C10      1.0000 0.09940  0.19790  0.47360  Biso   1.000  C
  H8       1.0000 0.05990  0.23270  0.45820  Biso   1.000  H
  N2       1.0000 0.09660  0.08710  0.49352  Biso   1.000  N
  C11      1.0000 0.34510  0.45870  0.48560  Biso   1.000  C
  H9       1.0000 0.34530  0.53580  0.47220  Biso   1.000  H
  C12      1.0000 0.28490  0.40050  0.48250  Biso   1.000  C
  H10      1.0000 0.24610  0.43810  0.46750  Biso   1.000  H
  C13      1.0000 0.28210  0.28430  0.50190  Biso   1.000  C
  C14      1.0000 0.34200  0.23690  0.52510  Biso   1.000  C
  H11      1.0000 0.34290  0.16090  0.53990  Biso   1.000  H
  C15      1.0000 0.40060  0.30210  0.52640  Biso   1.000  C
  H12      1.0000 0.44010  0.26730  0.54180  Biso   1.000  H
  N3       1.0000 0.40340  0.41290  0.50648  Biso   1.000  N
  C16      1.0000 0.84510  0.95870  0.48560  Biso   1.000  C
  H13      1.0000 0.84530  0.03580  0.47220  Biso   1.000  H
  C17      1.0000 0.78490  0.90050  0.48250  Biso   1.000  C
  H14      1.0000 0.74610  0.93810  0.46750  Biso   1.000  H
  C18      1.0000 0.78210  0.78430  0.50190  Biso   1.000  C
  C19      1.0000 0.84200  0.73690  0.52510  Biso   1.000  C
  H15      1.0000 0.84290  0.66090  0.53990  Biso   1.000  H
  C20      1.0000 0.90060  0.80210  0.52640  Biso   1.000  C
  H16      1.0000 0.94010  0.76730  0.54180  Biso   1.000  H
  N4       1.0000 0.90340  0.91290  0.50648  Biso   1.000  N
  Zn1      1.0000 0.50000  0.50000  0.50000  Biso   1.000  Zn
  Zn2      1.0000 0.00000  0.00000  0.50000  Biso   1.000  Zn
  C21      1.0000 0.34510  0.54130  0.98560  Biso   1.000  C
  H17      1.0000 0.34530  0.46420  0.97220  Biso   1.000  H
  C22      1.0000 0.28490  0.59950  0.98250  Biso   1.000  C
  H18      1.0000 0.24610  0.56190  0.96750  Biso   1.000  H
  C23      1.0000 0.28210  0.71570  0.00190  Biso   1.000  C
  C24      1.0000 0.34200  0.76310  0.02510  Biso   1.000  C
  H19      1.0000 0.34290  0.83910  0.03990  Biso   1.000  H
  C25      1.0000 0.40060  0.69790  0.02640  Biso   1.000  C
  H20      1.0000 0.44010  0.73270  0.04180  Biso   1.000  H
  N5       1.0000 0.40340  0.58710  0.00648  Biso   1.000  N
  C26      1.0000 0.84510  0.04130  0.98560  Biso   1.000  C
  H21      1.0000 0.84530  0.96420  0.97220  Biso   1.000  H
  C27      1.0000 0.78490  0.09950  0.98250  Biso   1.000  C
  H22      1.0000 0.74610  0.06190  0.96750  Biso   1.000  H
  C28      1.0000 0.78210  0.21570  0.00190  Biso   1.000  C
  C29      1.0000 0.84200  0.26310  0.02510  Biso   1.000  C
  H23      1.0000 0.84290  0.33910  0.03990  Biso   1.000  H
  C30      1.0000 0.90060  0.19790  0.02640  Biso   1.000  C
  H24      1.0000 0.94010  0.23270  0.04180  Biso   1.000  H
  N6       1.0000 0.90340  0.08710  0.00648  Biso   1.000  N
  C31      1.0000 0.65490  0.45870  0.01440  Biso   1.000  C
  H25      1.0000 0.65470  0.53580  0.02780  Biso   1.000  H
  C32      1.0000 0.71510  0.40050  0.01750  Biso   1.000  C
  H26      1.0000 0.75390  0.43810  0.03250  Biso   1.000  H
  C33      1.0000 0.71790  0.28430  0.99810  Biso   1.000  C
  C34      1.0000 0.65800  0.23690  0.97490  Biso   1.000  C
  H27      1.0000 0.65710  0.16090  0.96010  Biso   1.000  H
  C35      1.0000 0.59940  0.30210  0.97360  Biso   1.000  C
  H28      1.0000 0.55990  0.26730  0.95820  Biso   1.000  H
  N7       1.0000 0.59660  0.41290  0.99352  Biso   1.000  N
  C36      1.0000 0.15490  0.95870  0.01440  Biso   1.000  C
  H29      1.0000 0.15470  0.03580  0.02780  Biso   1.000  H
  C37      1.0000 0.21510  0.90050  0.01750  Biso   1.000  C
  H30      1.0000 0.25390  0.93810  0.03250  Biso   1.000  H
  C38      1.0000 0.21790  0.78430  0.99810  Biso   1.000  C
  C39      1.0000 0.15800  0.73690  0.97490  Biso   1.000  C
  H31      1.0000 0.15710  0.66090  0.96010  Biso   1.000  H
  C40      1.0000 0.09940  0.80210  0.97360  Biso   1.000  C
  H32      1.0000 0.05990  0.76730  0.95820  Biso   1.000  H
  N8       1.0000 0.09660  0.91290  0.99352  Biso   1.000  N
  Zn3      1.0000 0.50000  0.50000  0.00000  Biso   1.000  Zn
  Zn4      1.0000 0.00000  0.00000  0.00000  Biso   1.000  Zn
  C41      1.0000 0.27920  0.33950  0.67100  Biso   1.000  C
  C42      1.0000 0.21050  0.34880  0.64220  Biso   1.000  C
  C43      1.0000 0.20120  0.45040  0.60950  Biso   1.000  C
  H33      1.0000 0.23620  0.50410  0.60920  Biso   1.000  H
  C44      1.0000 0.14150  0.47440  0.57760  Biso   1.000  C
  H34      1.0000 0.13630  0.54340  0.55660  Biso   1.000  H
  C45      1.0000 0.08960  0.39310  0.57760  Biso   1.000  C
  C46      1.0000 0.09630  0.29320  0.61030  Biso   1.000  C
  H35      1.0000 0.06030  0.24160  0.61070  Biso   1.000  H
  C47      1.0000 0.15620  0.26740  0.64290  Biso   1.000  C
  C48      1.0000 0.15670  0.15240  0.67490  Biso   1.000  C
  C49      1.0000 0.97250  0.42230  0.56660  Biso   1.000  C
  C50      1.0000 0.96360  0.52020  0.60150  Biso   1.000  C
  H36      1.0000 0.99700  0.57680  0.60740  Biso   1.000  H
  C51      1.0000 0.90560  0.53120  0.62640  Biso   1.000  C
  H37      1.0000 0.89980  0.59530  0.64980  Biso   1.000  H
  C52      1.0000 0.85390  0.44600  0.61720  Biso   1.000  C
  C53      1.0000 0.79430  0.45200  0.64430  Biso   1.000  C
  H38      1.0000 0.78910  0.51260  0.66980  Biso   1.000  H
  C54      1.0000 0.74510  0.37270  0.63430  Biso   1.000  C
  H39      1.0000 0.70670  0.37910  0.65300  Biso   1.000  H
  C55      1.0000 0.75050  0.27950  0.59570  Biso   1.000  C
  H40      1.0000 0.71560  0.22600  0.58840  Biso   1.000  H
  C56      1.0000 0.80870  0.26890  0.56880  Biso   1.000  C
  H41      1.0000 0.81280  0.20730  0.54370  Biso   1.000  H
  C57      1.0000 0.86180  0.35010  0.57910  Biso   1.000  C
  C58      1.0000 0.92340  0.33900  0.55410  Biso   1.000  C
  C59      1.0000 0.93610  0.23930  0.51520  Biso   1.000  C
  O1       1.0000 0.96678  0.15140  0.53713  Biso   1.000  O
  O2       1.0000 0.91330  0.24670  0.46444  Biso   1.000  O
  O3       1.0000 0.03223  0.41280  0.54135  Biso   1.000  O
  O4       1.0000 0.19840  0.13870  0.71861  Biso   1.000  O
  O5       1.0000 0.11460  0.07580  0.66006  Biso   1.000  O
  O6       1.0000 0.28900  0.27380  0.71510  Biso   1.000  O
  H42      1.0000 0.32720  0.28380  0.72960  Biso   1.000  H
  O7       1.0000 0.32570  0.39620  0.65290  Biso   1.000  O
  C60      1.0000 0.77920  0.83950  0.67100  Biso   1.000  C
  C61      1.0000 0.71050  0.84880  0.64220  Biso   1.000  C
  C62      1.0000 0.70120  0.95040  0.60950  Biso   1.000  C
  H43      1.0000 0.73620  0.00410  0.60920  Biso   1.000  H
  C63      1.0000 0.64150  0.97440  0.57760  Biso   1.000  C
  H44      1.0000 0.63630  0.04340  0.55660  Biso   1.000  H
  C64      1.0000 0.58960  0.89310  0.57760  Biso   1.000  C
  C65      1.0000 0.59630  0.79320  0.61030  Biso   1.000  C
  H45      1.0000 0.56030  0.74160  0.61070  Biso   1.000  H
  C66      1.0000 0.65620  0.76740  0.64290  Biso   1.000  C
  C67      1.0000 0.65670  0.65240  0.67490  Biso   1.000  C
  C68      1.0000 0.47250  0.92230  0.56660  Biso   1.000  C
  C69      1.0000 0.46360  0.02020  0.60150  Biso   1.000  C
  H46      1.0000 0.49700  0.07680  0.60740  Biso   1.000  H
  C70      1.0000 0.40560  0.03120  0.62640  Biso   1.000  C
  H47      1.0000 0.39980  0.09530  0.64980  Biso   1.000  H
  C71      1.0000 0.35390  0.94600  0.61720  Biso   1.000  C
  C72      1.0000 0.29430  0.95200  0.64430  Biso   1.000  C
  H48      1.0000 0.28910  0.01260  0.66980  Biso   1.000  H
  C73      1.0000 0.24510  0.87270  0.63430  Biso   1.000  C
  H49      1.0000 0.20670  0.87910  0.65300  Biso   1.000  H
  C74      1.0000 0.25050  0.77950  0.59570  Biso   1.000  C
  H50      1.0000 0.21560  0.72600  0.58840  Biso   1.000  H
  C75      1.0000 0.30870  0.76890  0.56880  Biso   1.000  C
  H51      1.0000 0.31280  0.70730  0.54370  Biso   1.000  H
  C76      1.0000 0.36180  0.85010  0.57910  Biso   1.000  C
  C77      1.0000 0.42340  0.83900  0.55410  Biso   1.000  C
  C78      1.0000 0.43610  0.73930  0.51520  Biso   1.000  C
  O8       1.0000 0.46678  0.65140  0.53713  Biso   1.000  O
  O9       1.0000 0.41330  0.74670  0.46444  Biso   1.000  O
  O10      1.0000 0.53223  0.91280  0.54135  Biso   1.000  O
  O11      1.0000 0.69840  0.63870  0.71861  Biso   1.000  O
  O12      1.0000 0.61460  0.57580  0.66006  Biso   1.000  O
  O13      1.0000 0.78900  0.77380  0.71510  Biso   1.000  O
  H52      1.0000 0.82720  0.78380  0.72960  Biso   1.000  H
  O14      1.0000 0.82570  0.89620  0.65290  Biso   1.000  O
  C79      1.0000 0.72080  0.66050  0.32900  Biso   1.000  C
  C80      1.0000 0.78950  0.65120  0.35780  Biso   1.000  C
  C81      1.0000 0.79880  0.54960  0.39050  Biso   1.000  C
  H53      1.0000 0.76380  0.49590  0.39080  Biso   1.000  H
  C82      1.0000 0.85850  0.52560  0.42240  Biso   1.000  C
  H54      1.0000 0.86370  0.45660  0.44340  Biso   1.000  H
  C83      1.0000 0.91040  0.60690  0.42240  Biso   1.000  C
  C84      1.0000 0.90370  0.70680  0.38970  Biso   1.000  C
  H55      1.0000 0.93970  0.75840  0.38930  Biso   1.000  H
  C85      1.0000 0.84380  0.73260  0.35710  Biso   1.000  C
  C86      1.0000 0.84330  0.84760  0.32510  Biso   1.000  C
  C87      1.0000 0.02750  0.57770  0.43340  Biso   1.000  C
  C88      1.0000 0.03640  0.47980  0.39850  Biso   1.000  C
  H56      1.0000 0.00300  0.42320  0.39260  Biso   1.000  H
  C89      1.0000 0.09440  0.46880  0.37360  Biso   1.000  C
  H57      1.0000 0.10020  0.40470  0.35020  Biso   1.000  H
  C90      1.0000 0.14610  0.55400  0.38280  Biso   1.000  C
  C91      1.0000 0.20570  0.54800  0.35570  Biso   1.000  C
  H58      1.0000 0.21090  0.48740  0.33020  Biso   1.000  H
  C92      1.0000 0.25490  0.62730  0.36570  Biso   1.000  C
  H59      1.0000 0.29330  0.62090  0.34700  Biso   1.000  H
  C93      1.0000 0.24950  0.72050  0.40430  Biso   1.000  C
  H60      1.0000 0.28440  0.77400  0.41160  Biso   1.000  H
  C94      1.0000 0.19130  0.73110  0.43120  Biso   1.000  C
  H61      1.0000 0.18720  0.79270  0.45630  Biso   1.000  H
  C95      1.0000 0.13820  0.64990  0.42090  Biso   1.000  C
  C96      1.0000 0.07660  0.66100  0.44590  Biso   1.000  C
  C97      1.0000 0.06390  0.76070  0.48480  Biso   1.000  C
  O15      1.0000 0.03322  0.84860  0.46287  Biso   1.000  O
  O16      1.0000 0.08670  0.75330  0.53556  Biso   1.000  O
  O17      1.0000 0.96777  0.58720  0.45865  Biso   1.000  O
  O18      1.0000 0.80160  0.86130  0.28139  Biso   1.000  O
  O19      1.0000 0.88540  0.92420  0.33994  Biso   1.000  O
  O20      1.0000 0.71100  0.72620  0.28490  Biso   1.000  O
  H62      1.0000 0.67280  0.71620  0.27040  Biso   1.000  H
  O21      1.0000 0.67430  0.60380  0.34710  Biso   1.000  O
  C98      1.0000 0.22080  0.16050  0.32900  Biso   1.000  C
  C99      1.0000 0.28950  0.15120  0.35780  Biso   1.000  C
  C100     1.0000 0.29880  0.04960  0.39050  Biso   1.000  C
  H63      1.0000 0.26380  0.99590  0.39080  Biso   1.000  H
  C101     1.0000 0.35850  0.02560  0.42240  Biso   1.000  C
  H64      1.0000 0.36370  0.95660  0.44340  Biso   1.000  H
  C102     1.0000 0.41040  0.10690  0.42240  Biso   1.000  C
  C103     1.0000 0.40370  0.20680  0.38970  Biso   1.000  C
  H65      1.0000 0.43970  0.25840  0.38930  Biso   1.000  H
  C104     1.0000 0.34380  0.23260  0.35710  Biso   1.000  C
  C105     1.0000 0.34330  0.34760  0.32510  Biso   1.000  C
  C106     1.0000 0.52750  0.07770  0.43340  Biso   1.000  C
  C107     1.0000 0.53640  0.97980  0.39850  Biso   1.000  C
  H66      1.0000 0.50300  0.92320  0.39260  Biso   1.000  H
  C108     1.0000 0.59440  0.96880  0.37360  Biso   1.000  C
  H67      1.0000 0.60020  0.90470  0.35020  Biso   1.000  H
  C109     1.0000 0.64610  0.05400  0.38280  Biso   1.000  C
  C110     1.0000 0.70570  0.04800  0.35570  Biso   1.000  C
  H68      1.0000 0.71090  0.98740  0.33020  Biso   1.000  H
  C111     1.0000 0.75490  0.12730  0.36570  Biso   1.000  C
  H69      1.0000 0.79330  0.12090  0.34700  Biso   1.000  H
  C112     1.0000 0.74950  0.22050  0.40430  Biso   1.000  C
  H70      1.0000 0.78440  0.27400  0.41160  Biso   1.000  H
  C113     1.0000 0.69130  0.23110  0.43120  Biso   1.000  C
  H71      1.0000 0.68720  0.29270  0.45630  Biso   1.000  H
  C114     1.0000 0.63820  0.14990  0.42090  Biso   1.000  C
  C115     1.0000 0.57660  0.16100  0.44590  Biso   1.000  C
  C116     1.0000 0.56390  0.26070  0.48480  Biso   1.000  C
  O22      1.0000 0.53322  0.34860  0.46287  Biso   1.000  O
  O23      1.0000 0.58670  0.25330  0.53556  Biso   1.000  O
  O24      1.0000 0.46777  0.08720  0.45865  Biso   1.000  O
  O25      1.0000 0.30160  0.36130  0.28139  Biso   1.000  O
  O26      1.0000 0.38540  0.42420  0.33994  Biso   1.000  O
  O27      1.0000 0.21100  0.22620  0.28490  Biso   1.000  O
  H72      1.0000 0.17280  0.21620  0.27040  Biso   1.000  H
  O28      1.0000 0.17430  0.10380  0.34710  Biso   1.000  O
  C117     1.0000 0.72080  0.33950  0.82900  Biso   1.000  C
  C118     1.0000 0.78950  0.34880  0.85780  Biso   1.000  C
  C119     1.0000 0.79880  0.45040  0.89050  Biso   1.000  C
  H73      1.0000 0.76380  0.50410  0.89080  Biso   1.000  H
  C120     1.0000 0.85850  0.47440  0.92240  Biso   1.000  C
  H74      1.0000 0.86370  0.54340  0.94340  Biso   1.000  H
  C121     1.0000 0.91040  0.39310  0.92240  Biso   1.000  C
  C122     1.0000 0.90370  0.29320  0.88970  Biso   1.000  C
  H75      1.0000 0.93970  0.24160  0.88930  Biso   1.000  H
  C123     1.0000 0.84380  0.26740  0.85710  Biso   1.000  C
  C124     1.0000 0.84330  0.15240  0.82510  Biso   1.000  C
  C125     1.0000 0.02750  0.42230  0.93340  Biso   1.000  C
  C126     1.0000 0.03640  0.52020  0.89850  Biso   1.000  C
  H76      1.0000 0.00300  0.57680  0.89260  Biso   1.000  H
  C127     1.0000 0.09440  0.53120  0.87360  Biso   1.000  C
  H77      1.0000 0.10020  0.59530  0.85020  Biso   1.000  H
  C128     1.0000 0.14610  0.44600  0.88280  Biso   1.000  C
  C129     1.0000 0.20570  0.45200  0.85570  Biso   1.000  C
  H78      1.0000 0.21090  0.51260  0.83020  Biso   1.000  H
  C130     1.0000 0.25490  0.37270  0.86570  Biso   1.000  C
  H79      1.0000 0.29330  0.37910  0.84700  Biso   1.000  H
  C131     1.0000 0.24950  0.27950  0.90430  Biso   1.000  C
  H80      1.0000 0.28440  0.22600  0.91160  Biso   1.000  H
  C132     1.0000 0.19130  0.26890  0.93120  Biso   1.000  C
  H81      1.0000 0.18720  0.20730  0.95630  Biso   1.000  H
  C133     1.0000 0.13820  0.35010  0.92090  Biso   1.000  C
  C134     1.0000 0.07660  0.33900  0.94590  Biso   1.000  C
  C135     1.0000 0.06390  0.23930  0.98480  Biso   1.000  C
  O29      1.0000 0.03322  0.15140  0.96287  Biso   1.000  O
  O30      1.0000 0.08670  0.24670  0.03556  Biso   1.000  O
  O31      1.0000 0.96777  0.41280  0.95865  Biso   1.000  O
  O32      1.0000 0.80160  0.13870  0.78139  Biso   1.000  O
  O33      1.0000 0.88540  0.07580  0.83994  Biso   1.000  O
  O34      1.0000 0.71100  0.27380  0.78490  Biso   1.000  O
  H82      1.0000 0.67280  0.28380  0.77040  Biso   1.000  H
  O35      1.0000 0.67430  0.39620  0.84710  Biso   1.000  O
  C136     1.0000 0.22080  0.83950  0.82900  Biso   1.000  C
  C137     1.0000 0.28950  0.84880  0.85780  Biso   1.000  C
  C138     1.0000 0.29880  0.95040  0.89050  Biso   1.000  C
  H83      1.0000 0.26380  0.00410  0.89080  Biso   1.000  H
  C139     1.0000 0.35850  0.97440  0.92240  Biso   1.000  C
  H84      1.0000 0.36370  0.04340  0.94340  Biso   1.000  H
  C140     1.0000 0.41040  0.89310  0.92240  Biso   1.000  C
  C141     1.0000 0.40370  0.79320  0.88970  Biso   1.000  C
  H85      1.0000 0.43970  0.74160  0.88930  Biso   1.000  H
  C142     1.0000 0.34380  0.76740  0.85710  Biso   1.000  C
  C143     1.0000 0.34330  0.65240  0.82510  Biso   1.000  C
  C144     1.0000 0.52750  0.92230  0.93340  Biso   1.000  C
  C145     1.0000 0.53640  0.02020  0.89850  Biso   1.000  C
  H86      1.0000 0.50300  0.07680  0.89260  Biso   1.000  H
  C146     1.0000 0.59440  0.03120  0.87360  Biso   1.000  C
  H87      1.0000 0.60020  0.09530  0.85020  Biso   1.000  H
  C147     1.0000 0.64610  0.94600  0.88280  Biso   1.000  C
  C148     1.0000 0.70570  0.95200  0.85570  Biso   1.000  C
  H88      1.0000 0.71090  0.01260  0.83020  Biso   1.000  H
  C149     1.0000 0.75490  0.87270  0.86570  Biso   1.000  C
  H89      1.0000 0.79330  0.87910  0.84700  Biso   1.000  H
  C150     1.0000 0.74950  0.77950  0.90430  Biso   1.000  C
  H90      1.0000 0.78440  0.72600  0.91160  Biso   1.000  H
  C151     1.0000 0.69130  0.76890  0.93120  Biso   1.000  C
  H91      1.0000 0.68720  0.70730  0.95630  Biso   1.000  H
  C152     1.0000 0.63820  0.85010  0.92090  Biso   1.000  C
  C153     1.0000 0.57660  0.83900  0.94590  Biso   1.000  C
  C154     1.0000 0.56390  0.73930  0.98480  Biso   1.000  C
  O36      1.0000 0.53322  0.65140  0.96287  Biso   1.000  O
  O37      1.0000 0.58670  0.74670  0.03556  Biso   1.000  O
  O38      1.0000 0.46777  0.91280  0.95865  Biso   1.000  O
  O39      1.0000 0.30160  0.63870  0.78139  Biso   1.000  O
  O40      1.0000 0.38540  0.57580  0.83994  Biso   1.000  O
  O41      1.0000 0.21100  0.77380  0.78490  Biso   1.000  O
  H92      1.0000 0.17280  0.78380  0.77040  Biso   1.000  H
  O42      1.0000 0.17430  0.89620  0.84710  Biso   1.000  O
  C155     1.0000 0.27920  0.66050  0.17100  Biso   1.000  C
  C156     1.0000 0.21050  0.65120  0.14220  Biso   1.000  C
  C157     1.0000 0.20120  0.54960  0.10950  Biso   1.000  C
  H93      1.0000 0.23620  0.49590  0.10920  Biso   1.000  H
  C158     1.0000 0.14150  0.52560  0.07760  Biso   1.000  C
  H94      1.0000 0.13630  0.45660  0.05660  Biso   1.000  H
  C159     1.0000 0.08960  0.60690  0.07760  Biso   1.000  C
  C160     1.0000 0.09630  0.70680  0.11030  Biso   1.000  C
  H95      1.0000 0.06030  0.75840  0.11070  Biso   1.000  H
  C161     1.0000 0.15620  0.73260  0.14290  Biso   1.000  C
  C162     1.0000 0.15670  0.84760  0.17490  Biso   1.000  C
  C163     1.0000 0.97250  0.57770  0.06660  Biso   1.000  C
  C164     1.0000 0.96360  0.47980  0.10150  Biso   1.000  C
  H96      1.0000 0.99700  0.42320  0.10740  Biso   1.000  H
  C165     1.0000 0.90560  0.46880  0.12640  Biso   1.000  C
  H97      1.0000 0.89980  0.40470  0.14980  Biso   1.000  H
  C166     1.0000 0.85390  0.55400  0.11720  Biso   1.000  C
  C167     1.0000 0.79430  0.54800  0.14430  Biso   1.000  C
  H98      1.0000 0.78910  0.48740  0.16980  Biso   1.000  H
  C168     1.0000 0.74510  0.62730  0.13430  Biso   1.000  C
  H99      1.0000 0.70670  0.62090  0.15300  Biso   1.000  H
  C169     1.0000 0.75050  0.72050  0.09570  Biso   1.000  C
  H100     1.0000 0.71560  0.77400  0.08840  Biso   1.000  H
  C170     1.0000 0.80870  0.73110  0.06880  Biso   1.000  C
  H101     1.0000 0.81280  0.79270  0.04370  Biso   1.000  H
  C171     1.0000 0.86180  0.64990  0.07910  Biso   1.000  C
  C172     1.0000 0.92340  0.66100  0.05410  Biso   1.000  C
  C173     1.0000 0.93610  0.76070  0.01520  Biso   1.000  C
  O43      1.0000 0.96678  0.84860  0.03713  Biso   1.000  O
  O44      1.0000 0.91330  0.75330  0.96444  Biso   1.000  O
  O45      1.0000 0.03223  0.58720  0.04135  Biso   1.000  O
  O46      1.0000 0.19840  0.86130  0.21861  Biso   1.000  O
  O47      1.0000 0.11460  0.92420  0.16006  Biso   1.000  O
  O48      1.0000 0.28900  0.72620  0.21510  Biso   1.000  O
  H102     1.0000 0.32720  0.71620  0.22960  Biso   1.000  H
  O49      1.0000 0.32570  0.60380  0.15290  Biso   1.000  O
  C174     1.0000 0.77920  0.16050  0.17100  Biso   1.000  C
  C175     1.0000 0.71050  0.15120  0.14220  Biso   1.000  C
  C176     1.0000 0.70120  0.04960  0.10950  Biso   1.000  C
  H103     1.0000 0.73620  0.99590  0.10920  Biso   1.000  H
  C177     1.0000 0.64150  0.02560  0.07760  Biso   1.000  C
  H104     1.0000 0.63630  0.95660  0.05660  Biso   1.000  H
  C178     1.0000 0.58960  0.10690  0.07760  Biso   1.000  C
  C179     1.0000 0.59630  0.20680  0.11030  Biso   1.000  C
  H105     1.0000 0.56030  0.25840  0.11070  Biso   1.000  H
  C180     1.0000 0.65620  0.23260  0.14290  Biso   1.000  C
  C181     1.0000 0.65670  0.34760  0.17490  Biso   1.000  C
  C182     1.0000 0.47250  0.07770  0.06660  Biso   1.000  C
  C183     1.0000 0.46360  0.97980  0.10150  Biso   1.000  C
  H106     1.0000 0.49700  0.92320  0.10740  Biso   1.000  H
  C184     1.0000 0.40560  0.96880  0.12640  Biso   1.000  C
  H107     1.0000 0.39980  0.90470  0.14980  Biso   1.000  H
  C185     1.0000 0.35390  0.05400  0.11720  Biso   1.000  C
  C186     1.0000 0.29430  0.04800  0.14430  Biso   1.000  C
  H108     1.0000 0.28910  0.98740  0.16980  Biso   1.000  H
  C187     1.0000 0.24510  0.12730  0.13430  Biso   1.000  C
  H109     1.0000 0.20670  0.12090  0.15300  Biso   1.000  H
  C188     1.0000 0.25050  0.22050  0.09570  Biso   1.000  C
  H110     1.0000 0.21560  0.27400  0.08840  Biso   1.000  H
  C189     1.0000 0.30870  0.23110  0.06880  Biso   1.000  C
  H111     1.0000 0.31280  0.29270  0.04370  Biso   1.000  H
  C190     1.0000 0.36180  0.14990  0.07910  Biso   1.000  C
  C191     1.0000 0.42340  0.16100  0.05410  Biso   1.000  C
  C192     1.0000 0.43610  0.26070  0.01520  Biso   1.000  C
  O50      1.0000 0.46678  0.34860  0.03713  Biso   1.000  O
  O51      1.0000 0.41330  0.25330  0.96444  Biso   1.000  O
  O52      1.0000 0.53223  0.08720  0.04135  Biso   1.000  O
  O53      1.0000 0.69840  0.36130  0.21861  Biso   1.000  O
  O54      1.0000 0.61460  0.42420  0.16006  Biso   1.000  O
  O55      1.0000 0.78900  0.22620  0.21510  Biso   1.000  O
  H112     1.0000 0.82720  0.21620  0.22960  Biso   1.000  H
  O56      1.0000 0.82570  0.10380  0.15290  Biso   1.000  O
