data_image0
_cell_length_a       10.0009
_cell_length_b       15.472
_cell_length_c       18.563
_cell_angle_alpha    90
_cell_angle_beta     91.811
_cell_angle_gamma    90

_symmetry_space_group_name_H-M    "P 1"
_symmetry_int_tables_number       1

loop_
  _symmetry_equiv_pos_as_xyz
  'x, y, z'

loop_
  _atom_site_label
  _atom_site_occupancy
  _atom_site_fract_x
  _atom_site_fract_y
  _atom_site_fract_z
  _atom_site_thermal_displace_type
  _atom_site_B_iso_or_equiv
  _atom_site_type_symbol
  Co1      1.0000 0.09124  0.20161  0.67983  Biso   1.000  Co
  C1       1.0000 0.37410  0.19950  0.65140  Biso   1.000  C
  C2       1.0000 0.48890  0.18020  0.60410  Biso   1.000  C
  C3       1.0000 0.61820  0.19200  0.62970  Biso   1.000  C
  H1       1.0000 0.63470  0.21140  0.67660  Biso   1.000  H
  C4       1.0000 0.72400  0.17470  0.58540  Biso   1.000  C
  C5       1.0000 0.70040  0.14220  0.51720  Biso   1.000  C
  H2       1.0000 0.77170  0.13030  0.48770  Biso   1.000  H
  C6       1.0000 0.57160  0.12720  0.49260  Biso   1.000  C
  C7       1.0000 0.46610  0.14660  0.53600  Biso   1.000  C
  H3       1.0000 0.37880  0.13680  0.51920  Biso   1.000  H
  C8       1.0000 0.86730  0.18820  0.61570  Biso   1.000  C
  C9       1.0000 0.16510  0.00880  0.66290  Biso   1.000  C
  H4       1.0000 0.22960  0.03160  0.63330  Biso   1.000  H
  C10      1.0000 0.15810  0.92130  0.67040  Biso   1.000  C
  H5       1.0000 0.21930  0.88640  0.64750  Biso   1.000  H
  C11      1.0000 0.06180  0.88390  0.71170  Biso   1.000  C
  C12      1.0000 0.97630  0.94220  0.74460  Biso   1.000  C
  H6       1.0000 0.90920  0.92130  0.77350  Biso   1.000  H
  C13      1.0000 0.98930  0.02780  0.73550  Biso   1.000  C
  H7       1.0000 0.92960  0.06430  0.75780  Biso   1.000  H
  C14      1.0000 0.05200  0.78810  0.71830  Biso   1.000  C
  C15      1.0000 0.98900  0.75230  0.78440  Biso   1.000  C
  H8       1.0000 0.89310  0.75790  0.77960  Biso   1.000  H
  H9       1.0000 0.02040  0.78370  0.82610  Biso   1.000  H
  H10      1.0000 0.01180  0.69230  0.78980  Biso   1.000  H
  C16      1.0000 0.12840  0.61160  0.63150  Biso   1.000  C
  C17      1.0000 0.18000  0.64760  0.56500  Biso   1.000  C
  H11      1.0000 0.14490  0.70490  0.55780  Biso   1.000  H
  H12      1.0000 0.15210  0.61170  0.52500  Biso   1.000  H
  H13      1.0000 0.27560  0.64980  0.56840  Biso   1.000  H
  C18      1.0000 0.12040  0.51670  0.63990  Biso   1.000  C
  C19      1.0000 0.15300  0.45900  0.59220  Biso   1.000  C
  H14      1.0000 0.18080  0.47840  0.54770  Biso   1.000  H
  C20      1.0000 0.15000  0.37020  0.60400  Biso   1.000  C
  H15      1.0000 0.18260  0.33330  0.56930  Biso   1.000  H
  C21      1.0000 0.06900  0.39240  0.70660  Biso   1.000  C
  H16      1.0000 0.03550  0.37120  0.74920  Biso   1.000  H
  C22      1.0000 0.07900  0.48160  0.69960  Biso   1.000  C
  H17      1.0000 0.05530  0.51690  0.73770  Biso   1.000  H
  N1       1.0000 0.08420  0.06300  0.69560  Biso   1.000  N
  N2       1.0000 0.09890  0.74690  0.66890  Biso   1.000  N
  N3       1.0000 0.09110  0.65550  0.67960  Biso   1.000  N
  N4       1.0000 0.10280  0.33830  0.66070  Biso   1.000  N
  O1       1.0000 0.25850  0.18660  0.62390  Biso   1.000  O
  O2       1.0000 0.39610  0.22480  0.71360  Biso   1.000  O
  O3       1.0000 0.88280  0.20930  0.67920  Biso   1.000  O
  O4       1.0000 0.96340  0.17480  0.57570  Biso   1.000  O
  O5       1.0000 0.55350  0.09240  0.42530  Biso   1.000  O
  H18      1.0000 0.47490  0.07870  0.41890  Biso   1.000  H
  Co2      1.0000 0.40876  0.20161  0.82017  Biso   1.000  Co
  C23      1.0000 0.12590  0.19950  0.84860  Biso   1.000  C
  C24      1.0000 0.01110  0.18020  0.89590  Biso   1.000  C
  C25      1.0000 0.88180  0.19200  0.87030  Biso   1.000  C
  H19      1.0000 0.86530  0.21140  0.82340  Biso   1.000  H
  C26      1.0000 0.77600  0.17470  0.91460  Biso   1.000  C
  C27      1.0000 0.79960  0.14220  0.98280  Biso   1.000  C
  H20      1.0000 0.72830  0.13030  0.01230  Biso   1.000  H
  C28      1.0000 0.92840  0.12720  0.00740  Biso   1.000  C
  C29      1.0000 0.03390  0.14660  0.96400  Biso   1.000  C
  H21      1.0000 0.12120  0.13680  0.98080  Biso   1.000  H
  C30      1.0000 0.63270  0.18820  0.88430  Biso   1.000  C
  C31      1.0000 0.33490  0.00880  0.83710  Biso   1.000  C
  H22      1.0000 0.27040  0.03160  0.86670  Biso   1.000  H
  C32      1.0000 0.34190  0.92130  0.82960  Biso   1.000  C
  H23      1.0000 0.28070  0.88640  0.85250  Biso   1.000  H
  C33      1.0000 0.43820  0.88390  0.78830  Biso   1.000  C
  C34      1.0000 0.52370  0.94220  0.75540  Biso   1.000  C
  H24      1.0000 0.59080  0.92130  0.72650  Biso   1.000  H
  C35      1.0000 0.51070  0.02780  0.76450  Biso   1.000  C
  H25      1.0000 0.57040  0.06430  0.74220  Biso   1.000  H
  C36      1.0000 0.44800  0.78810  0.78170  Biso   1.000  C
  C37      1.0000 0.51100  0.75230  0.71560  Biso   1.000  C
  H26      1.0000 0.60690  0.75790  0.72040  Biso   1.000  H
  H27      1.0000 0.47960  0.78370  0.67390  Biso   1.000  H
  H28      1.0000 0.48820  0.69230  0.71020  Biso   1.000  H
  C38      1.0000 0.37160  0.61160  0.86850  Biso   1.000  C
  C39      1.0000 0.32000  0.64760  0.93500  Biso   1.000  C
  H29      1.0000 0.35510  0.70490  0.94220  Biso   1.000  H
  H30      1.0000 0.34790  0.61170  0.97500  Biso   1.000  H
  H31      1.0000 0.22440  0.64980  0.93160  Biso   1.000  H
  C40      1.0000 0.37960  0.51670  0.86010  Biso   1.000  C
  C41      1.0000 0.34700  0.45900  0.90780  Biso   1.000  C
  H32      1.0000 0.31920  0.47840  0.95230  Biso   1.000  H
  C42      1.0000 0.35000  0.37020  0.89600  Biso   1.000  C
  H33      1.0000 0.31740  0.33330  0.93070  Biso   1.000  H
  C43      1.0000 0.43100  0.39240  0.79340  Biso   1.000  C
  H34      1.0000 0.46450  0.37120  0.75080  Biso   1.000  H
  C44      1.0000 0.42100  0.48160  0.80040  Biso   1.000  C
  H35      1.0000 0.44470  0.51690  0.76230  Biso   1.000  H
  N5       1.0000 0.41580  0.06300  0.80440  Biso   1.000  N
  N6       1.0000 0.40110  0.74690  0.83110  Biso   1.000  N
  N7       1.0000 0.40890  0.65550  0.82040  Biso   1.000  N
  N8       1.0000 0.39720  0.33830  0.83930  Biso   1.000  N
  O6       1.0000 0.24150  0.18660  0.87610  Biso   1.000  O
  O7       1.0000 0.10390  0.22480  0.78640  Biso   1.000  O
  O8       1.0000 0.61720  0.20930  0.82080  Biso   1.000  O
  O9       1.0000 0.53660  0.17480  0.92430  Biso   1.000  O
  O10      1.0000 0.94650  0.09240  0.07470  Biso   1.000  O
  H36      1.0000 0.02510  0.07870  0.08110  Biso   1.000  H
  Co3      1.0000 0.90876  0.79839  0.32017  Biso   1.000  Co
  C45      1.0000 0.62590  0.80050  0.34860  Biso   1.000  C
  C46      1.0000 0.51110  0.81980  0.39590  Biso   1.000  C
  C47      1.0000 0.38180  0.80800  0.37030  Biso   1.000  C
  H37      1.0000 0.36530  0.78860  0.32340  Biso   1.000  H
  C48      1.0000 0.27600  0.82530  0.41460  Biso   1.000  C
  C49      1.0000 0.29960  0.85780  0.48280  Biso   1.000  C
  H38      1.0000 0.22830  0.86970  0.51230  Biso   1.000  H
  C50      1.0000 0.42840  0.87280  0.50740  Biso   1.000  C
  C51      1.0000 0.53390  0.85340  0.46400  Biso   1.000  C
  H39      1.0000 0.62120  0.86320  0.48080  Biso   1.000  H
  C52      1.0000 0.13270  0.81180  0.38430  Biso   1.000  C
  C53      1.0000 0.83490  0.99120  0.33710  Biso   1.000  C
  H40      1.0000 0.77040  0.96840  0.36670  Biso   1.000  H
  C54      1.0000 0.84190  0.07870  0.32960  Biso   1.000  C
  H41      1.0000 0.78070  0.11360  0.35250  Biso   1.000  H
  C55      1.0000 0.93820  0.11610  0.28830  Biso   1.000  C
  C56      1.0000 0.02370  0.05780  0.25540  Biso   1.000  C
  H42      1.0000 0.09080  0.07870  0.22650  Biso   1.000  H
  C57      1.0000 0.01070  0.97220  0.26450  Biso   1.000  C
  H43      1.0000 0.07040  0.93570  0.24220  Biso   1.000  H
  C58      1.0000 0.94800  0.21190  0.28170  Biso   1.000  C
  C59      1.0000 0.01100  0.24770  0.21560  Biso   1.000  C
  H44      1.0000 0.10690  0.24210  0.22040  Biso   1.000  H
  H45      1.0000 0.97960  0.21630  0.17390  Biso   1.000  H
  H46      1.0000 0.98820  0.30770  0.21020  Biso   1.000  H
  C60      1.0000 0.87160  0.38840  0.36850  Biso   1.000  C
  C61      1.0000 0.82000  0.35240  0.43500  Biso   1.000  C
  H47      1.0000 0.85510  0.29510  0.44220  Biso   1.000  H
  H48      1.0000 0.84790  0.38830  0.47500  Biso   1.000  H
  H49      1.0000 0.72440  0.35020  0.43160  Biso   1.000  H
  C62      1.0000 0.87960  0.48330  0.36010  Biso   1.000  C
  C63      1.0000 0.84700  0.54100  0.40780  Biso   1.000  C
  H50      1.0000 0.81920  0.52160  0.45230  Biso   1.000  H
  C64      1.0000 0.85000  0.62980  0.39600  Biso   1.000  C
  H51      1.0000 0.81740  0.66670  0.43070  Biso   1.000  H
  C65      1.0000 0.93100  0.60760  0.29340  Biso   1.000  C
  H52      1.0000 0.96450  0.62880  0.25080  Biso   1.000  H
  C66      1.0000 0.92100  0.51840  0.30040  Biso   1.000  C
  H53      1.0000 0.94470  0.48310  0.26230  Biso   1.000  H
  N9       1.0000 0.91580  0.93700  0.30440  Biso   1.000  N
  N10      1.0000 0.90110  0.25310  0.33110  Biso   1.000  N
  N11      1.0000 0.90890  0.34450  0.32040  Biso   1.000  N
  N12      1.0000 0.89720  0.66170  0.33930  Biso   1.000  N
  O11      1.0000 0.74150  0.81340  0.37610  Biso   1.000  O
  O12      1.0000 0.60390  0.77520  0.28640  Biso   1.000  O
  O13      1.0000 0.11720  0.79070  0.32080  Biso   1.000  O
  O14      1.0000 0.03660  0.82520  0.42430  Biso   1.000  O
  O15      1.0000 0.44650  0.90760  0.57470  Biso   1.000  O
  H54      1.0000 0.52510  0.92130  0.58110  Biso   1.000  H
  Co4      1.0000 0.59124  0.79839  0.17983  Biso   1.000  Co
  C67      1.0000 0.87410  0.80050  0.15140  Biso   1.000  C
  C68      1.0000 0.98890  0.81980  0.10410  Biso   1.000  C
  C69      1.0000 0.11820  0.80800  0.12970  Biso   1.000  C
  H55      1.0000 0.13470  0.78860  0.17660  Biso   1.000  H
  C70      1.0000 0.22400  0.82530  0.08540  Biso   1.000  C
  C71      1.0000 0.20040  0.85780  0.01720  Biso   1.000  C
  H56      1.0000 0.27170  0.86970  0.98770  Biso   1.000  H
  C72      1.0000 0.07160  0.87280  0.99260  Biso   1.000  C
  C73      1.0000 0.96610  0.85340  0.03600  Biso   1.000  C
  H57      1.0000 0.87880  0.86320  0.01920  Biso   1.000  H
  C74      1.0000 0.36730  0.81180  0.11570  Biso   1.000  C
  C75      1.0000 0.66510  0.99120  0.16290  Biso   1.000  C
  H58      1.0000 0.72960  0.96840  0.13330  Biso   1.000  H
  C76      1.0000 0.65810  0.07870  0.17040  Biso   1.000  C
  H59      1.0000 0.71930  0.11360  0.14750  Biso   1.000  H
  C77      1.0000 0.56180  0.11610  0.21170  Biso   1.000  C
  C78      1.0000 0.47630  0.05780  0.24460  Biso   1.000  C
  H60      1.0000 0.40920  0.07870  0.27350  Biso   1.000  H
  C79      1.0000 0.48930  0.97220  0.23550  Biso   1.000  C
  H61      1.0000 0.42960  0.93570  0.25780  Biso   1.000  H
  C80      1.0000 0.55200  0.21190  0.21830  Biso   1.000  C
  C81      1.0000 0.48900  0.24770  0.28440  Biso   1.000  C
  H62      1.0000 0.39310  0.24210  0.27960  Biso   1.000  H
  H63      1.0000 0.52040  0.21630  0.32610  Biso   1.000  H
  H64      1.0000 0.51180  0.30770  0.28980  Biso   1.000  H
  C82      1.0000 0.62840  0.38840  0.13150  Biso   1.000  C
  C83      1.0000 0.68000  0.35240  0.06500  Biso   1.000  C
  H65      1.0000 0.64490  0.29510  0.05780  Biso   1.000  H
  H66      1.0000 0.65210  0.38830  0.02500  Biso   1.000  H
  H67      1.0000 0.77560  0.35020  0.06840  Biso   1.000  H
  C84      1.0000 0.62040  0.48330  0.13990  Biso   1.000  C
  C85      1.0000 0.65300  0.54100  0.09220  Biso   1.000  C
  H68      1.0000 0.68080  0.52160  0.04770  Biso   1.000  H
  C86      1.0000 0.65000  0.62980  0.10400  Biso   1.000  C
  H69      1.0000 0.68260  0.66670  0.06930  Biso   1.000  H
  C87      1.0000 0.56900  0.60760  0.20660  Biso   1.000  C
  H70      1.0000 0.53550  0.62880  0.24920  Biso   1.000  H
  C88      1.0000 0.57900  0.51840  0.19960  Biso   1.000  C
  H71      1.0000 0.55530  0.48310  0.23770  Biso   1.000  H
  N13      1.0000 0.58420  0.93700  0.19560  Biso   1.000  N
  N14      1.0000 0.59890  0.25310  0.16890  Biso   1.000  N
  N15      1.0000 0.59110  0.34450  0.17960  Biso   1.000  N
  N16      1.0000 0.60280  0.66170  0.16070  Biso   1.000  N
  O16      1.0000 0.75850  0.81340  0.12390  Biso   1.000  O
  O17      1.0000 0.89610  0.77520  0.21360  Biso   1.000  O
  O18      1.0000 0.38280  0.79070  0.17920  Biso   1.000  O
  O19      1.0000 0.46340  0.82520  0.07570  Biso   1.000  O
  O20      1.0000 0.05350  0.90760  0.92530  Biso   1.000  O
  H72      1.0000 0.97490  0.92130  0.91890  Biso   1.000  H
