data_image0
_cell_length_a       7.4963
_cell_length_b       10.9105
_cell_length_c       11.4669
_cell_angle_alpha    111.743
_cell_angle_beta     99.371
_cell_angle_gamma    100.616

_symmetry_space_group_name_H-M    "P 1"
_symmetry_int_tables_number       1

loop_
  _symmetry_equiv_pos_as_xyz
  'x, y, z'

loop_
  _atom_site_label
  _atom_site_occupancy
  _atom_site_fract_x
  _atom_site_fract_y
  _atom_site_fract_z
  _atom_site_thermal_displace_type
  _atom_site_B_iso_or_equiv
  _atom_site_type_symbol
  Gd1      1.0000 0.66302  0.75685  0.66520  Biso   1.000  Gd
  C1       1.0000 0.44030  0.56670  0.34030  Biso   1.000  C
  C2       1.0000 0.40330  0.62680  0.24360  Biso   1.000  C
  C3       1.0000 0.43260  0.76830  0.28610  Biso   1.000  C
  H1       1.0000 0.48620  0.82590  0.37320  Biso   1.000  H
  C4       1.0000 0.38140  0.82220  0.19760  Biso   1.000  C
  C5       1.0000 0.38590  0.97060  0.24430  Biso   1.000  C
  C6       1.0000 0.30790  0.73640  0.06690  Biso   1.000  C
  H2       1.0000 0.27550  0.77380  0.00820  Biso   1.000  H
  C7       1.0000 0.28190  0.59580  0.02220  Biso   1.000  C
  C8       1.0000 0.32980  0.54150  0.11230  Biso   1.000  C
  H3       1.0000 0.31230  0.44750  0.08410  Biso   1.000  H
  C9       1.0000 0.19470  0.50750  0.88470  Biso   1.000  C
  O1       1.0000 0.49320  0.64700  0.45790  Biso   1.000  O
  O2       1.0000 0.41170  0.43970  0.29850  Biso   1.000  O
  O3       1.0000 0.47480  0.05530  0.35690  Biso   1.000  O
  O4       1.0000 0.28820  0.00850  0.16890  Biso   1.000  O
  N1       1.0000 0.11300  0.37340  0.83570  Biso   1.000  N
  N2       1.0000 0.04400  0.33570  0.70850  Biso   1.000  N
  N3       1.0000 0.08450  0.44130  0.68190  Biso   1.000  N
  N4       1.0000 0.18080  0.55170  0.79060  Biso   1.000  N
  Gd2      1.0000 0.33698  0.24315  0.33480  Biso   1.000  Gd
  C10      1.0000 0.55970  0.43330  0.65970  Biso   1.000  C
  C11      1.0000 0.59670  0.37320  0.75640  Biso   1.000  C
  C12      1.0000 0.56740  0.23170  0.71390  Biso   1.000  C
  H4       1.0000 0.51380  0.17410  0.62680  Biso   1.000  H
  C13      1.0000 0.61860  0.17780  0.80240  Biso   1.000  C
  C14      1.0000 0.61410  0.02940  0.75570  Biso   1.000  C
  C15      1.0000 0.69210  0.26360  0.93310  Biso   1.000  C
  H5       1.0000 0.72450  0.22620  0.99180  Biso   1.000  H
  C16      1.0000 0.71810  0.40420  0.97780  Biso   1.000  C
  C17      1.0000 0.67020  0.45850  0.88770  Biso   1.000  C
  H6       1.0000 0.68770  0.55250  0.91590  Biso   1.000  H
  C18      1.0000 0.80530  0.49250  0.11530  Biso   1.000  C
  O5       1.0000 0.50680  0.35300  0.54210  Biso   1.000  O
  O6       1.0000 0.58830  0.56030  0.70150  Biso   1.000  O
  O7       1.0000 0.52520  0.94470  0.64310  Biso   1.000  O
  O8       1.0000 0.71180  0.99150  0.83110  Biso   1.000  O
  N5       1.0000 0.88700  0.62660  0.16430  Biso   1.000  N
  N6       1.0000 0.95600  0.66430  0.29150  Biso   1.000  N
  N7       1.0000 0.91550  0.55870  0.31810  Biso   1.000  N
  N8       1.0000 0.81920  0.44830  0.20940  Biso   1.000  N
