data_image0
_cell_length_a       8.397
_cell_length_b       17.812
_cell_length_c       31.257
_cell_angle_alpha    90
_cell_angle_beta     94.24
_cell_angle_gamma    90

_symmetry_space_group_name_H-M    "P 1"
_symmetry_int_tables_number       1

loop_
  _symmetry_equiv_pos_as_xyz
  'x, y, z'

loop_
  _atom_site_label
  _atom_site_occupancy
  _atom_site_fract_x
  _atom_site_fract_y
  _atom_site_fract_z
  _atom_site_thermal_displace_type
  _atom_site_B_iso_or_equiv
  _atom_site_type_symbol
  Zn1      1.0000 0.82742  0.12505  0.75377  Biso   1.000  Zn
  N1       1.0000 0.66130  0.06110  0.72209  Biso   1.000  N
  N2       1.0000 0.44840  0.98840  0.70950  Biso   1.000  N
  N3       1.0000 0.89230  0.82920  0.73487  Biso   1.000  N
  N4       1.0000 0.73330  0.73310  0.73932  Biso   1.000  N
  C1       1.0000 0.52960  0.03540  0.73899  Biso   1.000  C
  H1       1.0000 0.49780  0.04720  0.76610  Biso   1.000  H
  C2       1.0000 0.67070  0.03370  0.68332  Biso   1.000  C
  H2       1.0000 0.75430  0.04290  0.66610  Biso   1.000  H
  C3       1.0000 0.54180  0.99030  0.67176  Biso   1.000  C
  H3       1.0000 0.51790  0.96670  0.64550  Biso   1.000  H
  C4       1.0000 0.30090  0.95270  0.71473  Biso   1.000  C
  C5       1.0000 0.25960  0.89380  0.68683  Biso   1.000  C
  H4       1.0000 0.31640  0.88230  0.66330  Biso   1.000  H
  C6       1.0000 0.11710  0.85110  0.69796  Biso   1.000  C
  H5       1.0000 0.09140  0.80760  0.68250  Biso   1.000  H
  C7       1.0000 0.02960  0.86930  0.72658  Biso   1.000  C
  C8       1.0000 0.06030  0.93510  0.74754  Biso   1.000  C
  H6       1.0000 0.98960  0.95290  0.76670  Biso   1.000  H
  C9       1.0000 0.20360  0.97770  0.74015  Biso   1.000  C
  H7       1.0000 0.22330  0.02320  0.75410  Biso   1.000  H
  C10      1.0000 0.87260  0.75530  0.72676  Biso   1.000  C
  H8       1.0000 0.94580  0.72470  0.71420  Biso   1.000  H
  C11      1.0000 0.66140  0.79280  0.75533  Biso   1.000  C
  H9       1.0000 0.56070  0.79370  0.76590  Biso   1.000  H
  C12      1.0000 0.76160  0.85100  0.75337  Biso   1.000  C
  H10      1.0000 0.74310  0.89920  0.76340  Biso   1.000  H
  Zn2      1.0000 0.67258  0.62505  0.74623  Biso   1.000  Zn
  N5       1.0000 0.83870  0.56110  0.77791  Biso   1.000  N
  N6       1.0000 0.05160  0.48840  0.79050  Biso   1.000  N
  N7       1.0000 0.60770  0.32920  0.76513  Biso   1.000  N
  N8       1.0000 0.76670  0.23310  0.76068  Biso   1.000  N
  C13      1.0000 0.97040  0.53540  0.76101  Biso   1.000  C
  H11      1.0000 0.00220  0.54720  0.73390  Biso   1.000  H
  C14      1.0000 0.82930  0.53370  0.81668  Biso   1.000  C
  H12      1.0000 0.74570  0.54290  0.83390  Biso   1.000  H
  C15      1.0000 0.95820  0.49030  0.82824  Biso   1.000  C
  H13      1.0000 0.98210  0.46670  0.85450  Biso   1.000  H
  C16      1.0000 0.19910  0.45270  0.78527  Biso   1.000  C
  C17      1.0000 0.24040  0.39380  0.81317  Biso   1.000  C
  H14      1.0000 0.18360  0.38230  0.83670  Biso   1.000  H
  C18      1.0000 0.38290  0.35110  0.80204  Biso   1.000  C
  H15      1.0000 0.40860  0.30760  0.81750  Biso   1.000  H
  C19      1.0000 0.47040  0.36930  0.77342  Biso   1.000  C
  C20      1.0000 0.43970  0.43510  0.75246  Biso   1.000  C
  H16      1.0000 0.51040  0.45290  0.73330  Biso   1.000  H
  C21      1.0000 0.29640  0.47770  0.75985  Biso   1.000  C
  H17      1.0000 0.27670  0.52320  0.74590  Biso   1.000  H
  C22      1.0000 0.62740  0.25530  0.77324  Biso   1.000  C
  H18      1.0000 0.55420  0.22470  0.78580  Biso   1.000  H
  C23      1.0000 0.83860  0.29280  0.74467  Biso   1.000  C
  H19      1.0000 0.93930  0.29370  0.73410  Biso   1.000  H
  C24      1.0000 0.73840  0.35100  0.74663  Biso   1.000  C
  H20      1.0000 0.75690  0.39920  0.73660  Biso   1.000  H
  Zn3      1.0000 0.17258  0.87495  0.24623  Biso   1.000  Zn
  N9       1.0000 0.33870  0.93890  0.27791  Biso   1.000  N
  N10      1.0000 0.55160  0.01160  0.29050  Biso   1.000  N
  N11      1.0000 0.10770  0.17080  0.26513  Biso   1.000  N
  N12      1.0000 0.26670  0.26690  0.26068  Biso   1.000  N
  C25      1.0000 0.47040  0.96460  0.26101  Biso   1.000  C
  H21      1.0000 0.50220  0.95280  0.23390  Biso   1.000  H
  C26      1.0000 0.32930  0.96630  0.31668  Biso   1.000  C
  H22      1.0000 0.24570  0.95710  0.33390  Biso   1.000  H
  C27      1.0000 0.45820  0.00970  0.32824  Biso   1.000  C
  H23      1.0000 0.48210  0.03330  0.35450  Biso   1.000  H
  C28      1.0000 0.69910  0.04730  0.28527  Biso   1.000  C
  C29      1.0000 0.74040  0.10620  0.31317  Biso   1.000  C
  H24      1.0000 0.68360  0.11770  0.33670  Biso   1.000  H
  C30      1.0000 0.88290  0.14890  0.30204  Biso   1.000  C
  H25      1.0000 0.90860  0.19240  0.31750  Biso   1.000  H
  C31      1.0000 0.97040  0.13070  0.27342  Biso   1.000  C
  C32      1.0000 0.93970  0.06490  0.25246  Biso   1.000  C
  H26      1.0000 0.01040  0.04710  0.23330  Biso   1.000  H
  C33      1.0000 0.79640  0.02230  0.25985  Biso   1.000  C
  H27      1.0000 0.77670  0.97680  0.24590  Biso   1.000  H
  C34      1.0000 0.12740  0.24470  0.27324  Biso   1.000  C
  H28      1.0000 0.05420  0.27530  0.28580  Biso   1.000  H
  C35      1.0000 0.33860  0.20720  0.24467  Biso   1.000  C
  H29      1.0000 0.43930  0.20630  0.23410  Biso   1.000  H
  C36      1.0000 0.23840  0.14900  0.24663  Biso   1.000  C
  H30      1.0000 0.25690  0.10080  0.23660  Biso   1.000  H
  Zn4      1.0000 0.32742  0.37495  0.25377  Biso   1.000  Zn
  N13      1.0000 0.16130  0.43890  0.22209  Biso   1.000  N
  N14      1.0000 0.94840  0.51160  0.20950  Biso   1.000  N
  N15      1.0000 0.39230  0.67080  0.23487  Biso   1.000  N
  N16      1.0000 0.23330  0.76690  0.23932  Biso   1.000  N
  C37      1.0000 0.02960  0.46460  0.23899  Biso   1.000  C
  H31      1.0000 0.99780  0.45280  0.26610  Biso   1.000  H
  C38      1.0000 0.17070  0.46630  0.18332  Biso   1.000  C
  H32      1.0000 0.25430  0.45710  0.16610  Biso   1.000  H
  C39      1.0000 0.04180  0.50970  0.17176  Biso   1.000  C
  H33      1.0000 0.01790  0.53330  0.14550  Biso   1.000  H
  C40      1.0000 0.80090  0.54730  0.21473  Biso   1.000  C
  C41      1.0000 0.75960  0.60620  0.18683  Biso   1.000  C
  H34      1.0000 0.81640  0.61770  0.16330  Biso   1.000  H
  C42      1.0000 0.61710  0.64890  0.19796  Biso   1.000  C
  H35      1.0000 0.59140  0.69240  0.18250  Biso   1.000  H
  C43      1.0000 0.52960  0.63070  0.22658  Biso   1.000  C
  C44      1.0000 0.56030  0.56490  0.24754  Biso   1.000  C
  H36      1.0000 0.48960  0.54710  0.26670  Biso   1.000  H
  C45      1.0000 0.70360  0.52230  0.24015  Biso   1.000  C
  H37      1.0000 0.72330  0.47680  0.25410  Biso   1.000  H
  C46      1.0000 0.37260  0.74470  0.22676  Biso   1.000  C
  H38      1.0000 0.44580  0.77530  0.21420  Biso   1.000  H
  C47      1.0000 0.16140  0.70720  0.25533  Biso   1.000  C
  H39      1.0000 0.06070  0.70630  0.26590  Biso   1.000  H
  C48      1.0000 0.26160  0.64900  0.25337  Biso   1.000  C
  H40      1.0000 0.24310  0.60080  0.26340  Biso   1.000  H
  N17      1.0000 0.38700  0.21700  0.40820  Biso   1.000  N
  N18      1.0000 0.74300  0.35500  0.32540  Biso   1.000  N
  N19      1.0000 0.62130  0.42080  0.51060  Biso   1.000  N
  H41      1.0000 0.54650  0.38770  0.50980  Biso   1.000  H
  O1       1.0000 0.33200  0.20280  0.44240  Biso   1.000  O
  O2       1.0000 0.35900  0.17400  0.37820  Biso   1.000  O
  O3       1.0000 0.72100  0.30570  0.29790  Biso   1.000  O
  O4       1.0000 0.80800  0.41600  0.32320  Biso   1.000  O
  O5       1.0000 0.80000  0.47200  0.46950  Biso   1.000  O
  O6       1.0000 0.60460  0.56710  0.69490  Biso   1.000  O
  O7       1.0000 0.83340  0.61330  0.67780  Biso   1.000  O
  C49      1.0000 0.49770  0.27500  0.40693  Biso   1.000  C
  C50      1.0000 0.56380  0.28810  0.36814  Biso   1.000  C
  H42      1.0000 0.53590  0.25780  0.34460  Biso   1.000  H
  C51      1.0000 0.67160  0.34660  0.36461  Biso   1.000  C
  C52      1.0000 0.71330  0.39200  0.39987  Biso   1.000  C
  H43      1.0000 0.78540  0.43110  0.39750  Biso   1.000  H
  C53      1.0000 0.64720  0.37880  0.43865  Biso   1.000  C
  C54      1.0000 0.53940  0.32030  0.44218  Biso   1.000  C
  H44      1.0000 0.49520  0.31150  0.46810  Biso   1.000  H
  C55      1.0000 0.69560  0.42980  0.47498  Biso   1.000  C
  C56      1.0000 0.65240  0.46020  0.55005  Biso   1.000  C
  C57      1.0000 0.78450  0.50500  0.55817  Biso   1.000  C
  H45      1.0000 0.85850  0.51070  0.53770  Biso   1.000  H
  C58      1.0000 0.80560  0.54170  0.59745  Biso   1.000  C
  H46      1.0000 0.89440  0.57230  0.60310  Biso   1.000  H
  C59      1.0000 0.69380  0.53321  0.62914  Biso   1.000  C
  C60      1.0000 0.56260  0.48190  0.61947  Biso   1.000  C
  H47      1.0000 0.48880  0.47320  0.63970  Biso   1.000  H
  C61      1.0000 0.54670  0.44590  0.58025  Biso   1.000  C
  H48      1.0000 0.46400  0.41190  0.57440  Biso   1.000  H
  C62      1.0000 0.71320  0.57381  0.66925  Biso   1.000  C
  N20      1.0000 0.40090  0.82890  0.00030  Biso   1.000  N
  N21      1.0000 0.40920  0.89580  0.85010  Biso   1.000  N
  N22      1.0000 0.90180  0.72770  0.88410  Biso   1.000  N
  H49      1.0000 0.82050  0.71460  0.86740  Biso   1.000  H
  O8       1.0000 0.47910  0.81220  0.03230  Biso   1.000  O
  O9       1.0000 0.26150  0.84840  0.99880  Biso   1.000  O
  O10      1.0000 0.27570  0.91790  0.85270  Biso   1.000  O
  O11      1.0000 0.48520  0.90310  0.81940  Biso   1.000  O
  O12      1.0000 0.96360  0.76890  0.95160  Biso   1.000  O
  O13      1.0000 0.48560  0.63320  0.77850  Biso   1.000  O
  O14      1.0000 0.62160  0.67370  0.83710  Biso   1.000  O
  C63      1.0000 0.48150  0.82850  0.95950  Biso   1.000  C
  C64      1.0000 0.41030  0.86500  0.92620  Biso   1.000  C
  H50      1.0000 0.31580  0.89160  0.92820  Biso   1.000  H
  C65      1.0000 0.48670  0.86060  0.88860  Biso   1.000  C
  C66      1.0000 0.63230  0.82830  0.88580  Biso   1.000  C
  H51      1.0000 0.68270  0.83040  0.86030  Biso   1.000  H
  C67      1.0000 0.70590  0.79180  0.92200  Biso   1.000  C
  C68      1.0000 0.62870  0.79440  0.95980  Biso   1.000  C
  H52      1.0000 0.67570  0.77330  0.98490  Biso   1.000  H
  C69      1.0000 0.86870  0.76260  0.92120  Biso   1.000  C
  C70      1.0000 0.05110  0.71050  0.86980  Biso   1.000  C
  C71      1.0000 0.05680  0.69450  0.82670  Biso   1.000  C
  H53      1.0000 0.96220  0.69370  0.80930  Biso   1.000  H
  C72      1.0000 0.20020  0.67940  0.80860  Biso   1.000  C
  H54      1.0000 0.20320  0.67190  0.77920  Biso   1.000  H
  C73      1.0000 0.34130  0.67580  0.83630  Biso   1.000  C
  C74      1.0000 0.33140  0.68710  0.87930  Biso   1.000  C
  H55      1.0000 0.42360  0.68410  0.89770  Biso   1.000  H
  C75      1.0000 0.18900  0.70280  0.89600  Biso   1.000  C
  H56      1.0000 0.18540  0.70820  0.92550  Biso   1.000  H
  C76      1.0000 0.49610  0.65920  0.81710  Biso   1.000  C
  N23      1.0000 0.11300  0.71700  0.09180  Biso   1.000  N
  N24      1.0000 0.75700  0.85500  0.17460  Biso   1.000  N
  N25      1.0000 0.87870  0.92080  0.98940  Biso   1.000  N
  H57      1.0000 0.95350  0.88770  0.99020  Biso   1.000  H
  O15      1.0000 0.16800  0.70280  0.05760  Biso   1.000  O
  O16      1.0000 0.14100  0.67400  0.12180  Biso   1.000  O
  O17      1.0000 0.77900  0.80570  0.20210  Biso   1.000  O
  O18      1.0000 0.69200  0.91600  0.17680  Biso   1.000  O
  O19      1.0000 0.70000  0.97200  0.03050  Biso   1.000  O
  O20      1.0000 0.89540  0.06710  0.80510  Biso   1.000  O
  O21      1.0000 0.66660  0.11330  0.82220  Biso   1.000  O
  C77      1.0000 0.00230  0.77500  0.09307  Biso   1.000  C
  C78      1.0000 0.93620  0.78810  0.13186  Biso   1.000  C
  H58      1.0000 0.96410  0.75780  0.15540  Biso   1.000  H
  C79      1.0000 0.82840  0.84660  0.13539  Biso   1.000  C
  C80      1.0000 0.78670  0.89200  0.10013  Biso   1.000  C
  H59      1.0000 0.71460  0.93110  0.10250  Biso   1.000  H
  C81      1.0000 0.85280  0.87880  0.06135  Biso   1.000  C
  C82      1.0000 0.96060  0.82030  0.05782  Biso   1.000  C
  H60      1.0000 0.00480  0.81150  0.03190  Biso   1.000  H
  C83      1.0000 0.80440  0.92980  0.02502  Biso   1.000  C
  C84      1.0000 0.84760  0.96020  0.94995  Biso   1.000  C
  C85      1.0000 0.71550  0.00500  0.94183  Biso   1.000  C
  H61      1.0000 0.64150  0.01070  0.96230  Biso   1.000  H
  C86      1.0000 0.69440  0.04170  0.90255  Biso   1.000  C
  H62      1.0000 0.60560  0.07230  0.89690  Biso   1.000  H
  C87      1.0000 0.80620  0.03321  0.87086  Biso   1.000  C
  C88      1.0000 0.93740  0.98190  0.88053  Biso   1.000  C
  H63      1.0000 0.01120  0.97320  0.86030  Biso   1.000  H
  C89      1.0000 0.95330  0.94590  0.91975  Biso   1.000  C
  H64      1.0000 0.03600  0.91190  0.92560  Biso   1.000  H
  C90      1.0000 0.78680  0.07381  0.83075  Biso   1.000  C
  N26      1.0000 0.09910  0.32890  0.49970  Biso   1.000  N
  N27      1.0000 0.09080  0.39580  0.64990  Biso   1.000  N
  N28      1.0000 0.59820  0.22770  0.61590  Biso   1.000  N
  H65      1.0000 0.67950  0.21460  0.63260  Biso   1.000  H
  O22      1.0000 0.02090  0.31220  0.46770  Biso   1.000  O
  O23      1.0000 0.23850  0.34840  0.50120  Biso   1.000  O
  O24      1.0000 0.22430  0.41790  0.64730  Biso   1.000  O
  O25      1.0000 0.01480  0.40310  0.68060  Biso   1.000  O
  O26      1.0000 0.53640  0.26890  0.54840  Biso   1.000  O
  O27      1.0000 0.01440  0.13320  0.72150  Biso   1.000  O
  O28      1.0000 0.87840  0.17370  0.66290  Biso   1.000  O
  C91      1.0000 0.01850  0.32850  0.54050  Biso   1.000  C
  C92      1.0000 0.08970  0.36500  0.57380  Biso   1.000  C
  H66      1.0000 0.18420  0.39160  0.57180  Biso   1.000  H
  C93      1.0000 0.01330  0.36060  0.61140  Biso   1.000  C
  C94      1.0000 0.86770  0.32830  0.61420  Biso   1.000  C
  H67      1.0000 0.81730  0.33040  0.63970  Biso   1.000  H
  C95      1.0000 0.79410  0.29180  0.57800  Biso   1.000  C
  C96      1.0000 0.87130  0.29440  0.54020  Biso   1.000  C
  H68      1.0000 0.82430  0.27330  0.51510  Biso   1.000  H
  C97      1.0000 0.63130  0.26260  0.57880  Biso   1.000  C
  C98      1.0000 0.44890  0.21050  0.63020  Biso   1.000  C
  C99      1.0000 0.44320  0.19450  0.67330  Biso   1.000  C
  H69      1.0000 0.53780  0.19370  0.69070  Biso   1.000  H
  C100     1.0000 0.29980  0.17940  0.69140  Biso   1.000  C
  H70      1.0000 0.29680  0.17190  0.72080  Biso   1.000  H
  C101     1.0000 0.15870  0.17580  0.66370  Biso   1.000  C
  C102     1.0000 0.16860  0.18710  0.62070  Biso   1.000  C
  H71      1.0000 0.07640  0.18410  0.60230  Biso   1.000  H
  C103     1.0000 0.31100  0.20280  0.60400  Biso   1.000  C
  H72      1.0000 0.31460  0.20820  0.57450  Biso   1.000  H
  C104     1.0000 0.00390  0.15920  0.68290  Biso   1.000  C
  N29      1.0000 0.61300  0.78300  0.59180  Biso   1.000  N
  N30      1.0000 0.25700  0.64500  0.67460  Biso   1.000  N
  N31      1.0000 0.37870  0.57920  0.48940  Biso   1.000  N
  H73      1.0000 0.45350  0.61230  0.49020  Biso   1.000  H
  O29      1.0000 0.66800  0.79720  0.55760  Biso   1.000  O
  O30      1.0000 0.64100  0.82600  0.62180  Biso   1.000  O
  O31      1.0000 0.27900  0.69430  0.70210  Biso   1.000  O
  O32      1.0000 0.19200  0.58400  0.67680  Biso   1.000  O
  O33      1.0000 0.20000  0.52800  0.53050  Biso   1.000  O
  O34      1.0000 0.39540  0.43290  0.30510  Biso   1.000  O
  O35      1.0000 0.16660  0.38670  0.32220  Biso   1.000  O
  C105     1.0000 0.50230  0.72500  0.59307  Biso   1.000  C
  C106     1.0000 0.43620  0.71190  0.63186  Biso   1.000  C
  H74      1.0000 0.46410  0.74220  0.65540  Biso   1.000  H
  C107     1.0000 0.32840  0.65340  0.63539  Biso   1.000  C
  C108     1.0000 0.28670  0.60800  0.60013  Biso   1.000  C
  H75      1.0000 0.21460  0.56890  0.60250  Biso   1.000  H
  C109     1.0000 0.35280  0.62120  0.56135  Biso   1.000  C
  C110     1.0000 0.46060  0.67970  0.55782  Biso   1.000  C
  H76      1.0000 0.50480  0.68850  0.53190  Biso   1.000  H
  C111     1.0000 0.30440  0.57020  0.52502  Biso   1.000  C
  C112     1.0000 0.34760  0.53980  0.44995  Biso   1.000  C
  C113     1.0000 0.21550  0.49500  0.44183  Biso   1.000  C
  H77      1.0000 0.14150  0.48930  0.46230  Biso   1.000  H
  C114     1.0000 0.19440  0.45830  0.40255  Biso   1.000  C
  H78      1.0000 0.10560  0.42770  0.39690  Biso   1.000  H
  C115     1.0000 0.30620  0.46679  0.37086  Biso   1.000  C
  C116     1.0000 0.43740  0.51810  0.38053  Biso   1.000  C
  H79      1.0000 0.51120  0.52680  0.36030  Biso   1.000  H
  C117     1.0000 0.45330  0.55410  0.41975  Biso   1.000  C
  H80      1.0000 0.53600  0.58810  0.42560  Biso   1.000  H
  C118     1.0000 0.28680  0.42619  0.33075  Biso   1.000  C
  N32      1.0000 0.59910  0.17110  0.99970  Biso   1.000  N
  N33      1.0000 0.59080  0.10420  0.14990  Biso   1.000  N
  N34      1.0000 0.09820  0.27230  0.11590  Biso   1.000  N
  H81      1.0000 0.17950  0.28540  0.13260  Biso   1.000  H
  O36      1.0000 0.52090  0.18780  0.96770  Biso   1.000  O
  O37      1.0000 0.73850  0.15160  0.00120  Biso   1.000  O
  O38      1.0000 0.72430  0.08210  0.14730  Biso   1.000  O
  O39      1.0000 0.51480  0.09690  0.18060  Biso   1.000  O
  O40      1.0000 0.03640  0.23110  0.04840  Biso   1.000  O
  O41      1.0000 0.51440  0.36680  0.22150  Biso   1.000  O
  O42      1.0000 0.37840  0.32630  0.16290  Biso   1.000  O
  C119     1.0000 0.51850  0.17150  0.04050  Biso   1.000  C
  C120     1.0000 0.58970  0.13500  0.07380  Biso   1.000  C
  H82      1.0000 0.68420  0.10840  0.07180  Biso   1.000  H
  C121     1.0000 0.51330  0.13940  0.11140  Biso   1.000  C
  C122     1.0000 0.36770  0.17170  0.11420  Biso   1.000  C
  H83      1.0000 0.31730  0.16960  0.13970  Biso   1.000  H
  C123     1.0000 0.29410  0.20820  0.07800  Biso   1.000  C
  C124     1.0000 0.37130  0.20560  0.04020  Biso   1.000  C
  H84      1.0000 0.32430  0.22670  0.01510  Biso   1.000  H
  C125     1.0000 0.13130  0.23740  0.07880  Biso   1.000  C
  C126     1.0000 0.94890  0.28950  0.13020  Biso   1.000  C
  C127     1.0000 0.94320  0.30550  0.17330  Biso   1.000  C
  H85      1.0000 0.03780  0.30630  0.19070  Biso   1.000  H
  C128     1.0000 0.79980  0.32060  0.19140  Biso   1.000  C
  H86      1.0000 0.79680  0.32810  0.22080  Biso   1.000  H
  C129     1.0000 0.65870  0.32420  0.16370  Biso   1.000  C
  C130     1.0000 0.66860  0.31290  0.12070  Biso   1.000  C
  H87      1.0000 0.57640  0.31590  0.10230  Biso   1.000  H
  C131     1.0000 0.81100  0.29720  0.10400  Biso   1.000  C
  H88      1.0000 0.81460  0.29180  0.07450  Biso   1.000  H
  C132     1.0000 0.50390  0.34080  0.18290  Biso   1.000  C
  N35      1.0000 0.88700  0.28300  0.90820  Biso   1.000  N
  N36      1.0000 0.24300  0.14500  0.82540  Biso   1.000  N
  N37      1.0000 0.12130  0.07920  0.01060  Biso   1.000  N
  H89      1.0000 0.04650  0.11230  0.00980  Biso   1.000  H
  O43      1.0000 0.83200  0.29720  0.94240  Biso   1.000  O
  O44      1.0000 0.85900  0.32600  0.87820  Biso   1.000  O
  O45      1.0000 0.22100  0.19430  0.79790  Biso   1.000  O
  O46      1.0000 0.30800  0.08400  0.82320  Biso   1.000  O
  O47      1.0000 0.30000  0.02800  0.96950  Biso   1.000  O
  O48      1.0000 0.10460  0.93290  0.19490  Biso   1.000  O
  O49      1.0000 0.33340  0.88670  0.17780  Biso   1.000  O
  C133     1.0000 0.99770  0.22500  0.90693  Biso   1.000  C
  C134     1.0000 0.06380  0.21190  0.86814  Biso   1.000  C
  H90      1.0000 0.03590  0.24220  0.84460  Biso   1.000  H
  C135     1.0000 0.17160  0.15340  0.86461  Biso   1.000  C
  C136     1.0000 0.21330  0.10800  0.89987  Biso   1.000  C
  H91      1.0000 0.28540  0.06890  0.89750  Biso   1.000  H
  C137     1.0000 0.14720  0.12120  0.93865  Biso   1.000  C
  C138     1.0000 0.03940  0.17970  0.94218  Biso   1.000  C
  H92      1.0000 0.99520  0.18850  0.96810  Biso   1.000  H
  C139     1.0000 0.19560  0.07020  0.97498  Biso   1.000  C
  C140     1.0000 0.15240  0.03980  0.05005  Biso   1.000  C
  C141     1.0000 0.28450  0.99500  0.05817  Biso   1.000  C
  H93      1.0000 0.35850  0.98930  0.03770  Biso   1.000  H
  C142     1.0000 0.30560  0.95830  0.09745  Biso   1.000  C
  H94      1.0000 0.39440  0.92770  0.10310  Biso   1.000  H
  C143     1.0000 0.19380  0.96679  0.12914  Biso   1.000  C
  C144     1.0000 0.06260  0.01810  0.11947  Biso   1.000  C
  H95      1.0000 0.98880  0.02680  0.13970  Biso   1.000  H
  C145     1.0000 0.04670  0.05410  0.08025  Biso   1.000  C
  H96      1.0000 0.96400  0.08810  0.07440  Biso   1.000  H
  C146     1.0000 0.21320  0.92619  0.16925  Biso   1.000  C
  N38      1.0000 0.90090  0.67110  0.50030  Biso   1.000  N
  N39      1.0000 0.90920  0.60420  0.35010  Biso   1.000  N
  N40      1.0000 0.40180  0.77230  0.38410  Biso   1.000  N
  H97      1.0000 0.32050  0.78540  0.36740  Biso   1.000  H
  O50      1.0000 0.97910  0.68780  0.53230  Biso   1.000  O
  O51      1.0000 0.76150  0.65160  0.49880  Biso   1.000  O
  O52      1.0000 0.77570  0.58210  0.35270  Biso   1.000  O
  O53      1.0000 0.98520  0.59690  0.31940  Biso   1.000  O
  O54      1.0000 0.46360  0.73110  0.45160  Biso   1.000  O
  O55      1.0000 0.98560  0.86680  0.27850  Biso   1.000  O
  O56      1.0000 0.12160  0.82630  0.33710  Biso   1.000  O
  C147     1.0000 0.98150  0.67150  0.45950  Biso   1.000  C
  C148     1.0000 0.91030  0.63500  0.42620  Biso   1.000  C
  H98      1.0000 0.81580  0.60840  0.42820  Biso   1.000  H
  C149     1.0000 0.98670  0.63940  0.38860  Biso   1.000  C
  C150     1.0000 0.13230  0.67170  0.38580  Biso   1.000  C
  H99      1.0000 0.18270  0.66960  0.36030  Biso   1.000  H
  C151     1.0000 0.20590  0.70820  0.42200  Biso   1.000  C
  C152     1.0000 0.12870  0.70560  0.45980  Biso   1.000  C
  H100     1.0000 0.17570  0.72670  0.48490  Biso   1.000  H
  C153     1.0000 0.36870  0.73740  0.42120  Biso   1.000  C
  C154     1.0000 0.55110  0.78950  0.36980  Biso   1.000  C
  C155     1.0000 0.55680  0.80550  0.32670  Biso   1.000  C
  H101     1.0000 0.46220  0.80630  0.30930  Biso   1.000  H
  C156     1.0000 0.70020  0.82060  0.30860  Biso   1.000  C
  H102     1.0000 0.70320  0.82810  0.27920  Biso   1.000  H
  C157     1.0000 0.84130  0.82420  0.33630  Biso   1.000  C
  C158     1.0000 0.83140  0.81290  0.37930  Biso   1.000  C
  H103     1.0000 0.92360  0.81590  0.39770  Biso   1.000  H
  C159     1.0000 0.68900  0.79720  0.39600  Biso   1.000  C
  H104     1.0000 0.68540  0.79180  0.42550  Biso   1.000  H
  C160     1.0000 0.99610  0.84080  0.31710  Biso   1.000  C
