data_image0
_cell_length_a       8.5
_cell_length_b       5.11
_cell_length_c       8.76
_cell_angle_alpha    88.8
_cell_angle_beta     90
_cell_angle_gamma    90

_symmetry_space_group_name_H-M    "P 1"
_symmetry_int_tables_number       1

loop_
  _symmetry_equiv_pos_as_xyz
  'x, y, z'

loop_
  _atom_site_label
  _atom_site_occupancy
  _atom_site_fract_x
  _atom_site_fract_y
  _atom_site_fract_z
  _atom_site_thermal_displace_type
  _atom_site_B_iso_or_equiv
  _atom_site_type_symbol
  Al1      1.0000 0.33210  0.02950  0.50230  Biso   1.000  Al
  Al2      1.0000 0.16560  0.52360  0.50240  Biso   1.000  Al
  O1       1.0000 0.32210  0.71830  0.61150  Biso   1.000  O
  O2       1.0000 0.83080  0.15580  0.60230  Biso   1.000  O
  O3       1.0000 0.00160  0.63150  0.60440  Biso   1.000  O
  O4       1.0000 0.52050  0.12930  0.60680  Biso   1.000  O
  O5       1.0000 0.20290  0.21780  0.60520  Biso   1.000  O
  O6       1.0000 0.68060  0.64910  0.60150  Biso   1.000  O
  H1       1.0000 0.39900  0.65200  0.62400  Biso   1.000  H
  H2       1.0000 0.90500  0.07300  0.59800  Biso   1.000  H
  H3       1.0000 0.99700  0.63700  0.69000  Biso   1.000  H
  H4       1.0000 0.52900  0.30100  0.60700  Biso   1.000  H
  H5       1.0000 0.20700  0.22400  0.69600  Biso   1.000  H
  H6       1.0000 0.68500  0.66000  0.69000  Biso   1.000  H
  Al3      1.0000 0.66790  0.97050  0.49770  Biso   1.000  Al
  Al4      1.0000 0.83440  0.47640  0.49760  Biso   1.000  Al
  O7       1.0000 0.67790  0.28170  0.38850  Biso   1.000  O
  O8       1.0000 0.16920  0.84420  0.39770  Biso   1.000  O
  O9       1.0000 0.99840  0.36850  0.39560  Biso   1.000  O
  O10      1.0000 0.47950  0.87070  0.39320  Biso   1.000  O
  O11      1.0000 0.79710  0.78220  0.39480  Biso   1.000  O
  O12      1.0000 0.31940  0.35090  0.39850  Biso   1.000  O
  Si1      1.0000 0.45745  0.57163  0.29469  Biso   1.000  Si
  O13      1.0000 0.45776  0.56204  0.16368  Biso   1.000  O
  H7       1.0000 0.56308  0.55972  0.08881  Biso   1.000  H
