data_image0
_cell_length_a       8.616
_cell_length_b       9.492
_cell_length_c       10.659
_cell_angle_alpha    69.478
_cell_angle_beta     80.582
_cell_angle_gamma    79.795

_symmetry_space_group_name_H-M    "P 1"
_symmetry_int_tables_number       1

loop_
  _symmetry_equiv_pos_as_xyz
  'x, y, z'

loop_
  _atom_site_label
  _atom_site_occupancy
  _atom_site_fract_x
  _atom_site_fract_y
  _atom_site_fract_z
  _atom_site_thermal_displace_type
  _atom_site_B_iso_or_equiv
  _atom_site_type_symbol
  Zn1      1.0000 0.48110  0.16090  0.93015  Biso   1.000  Zn
  C1       1.0000 0.27880  0.05130  0.17980  Biso   1.000  C
  C2       1.0000 0.14230  0.06950  0.28410  Biso   1.000  C
  H1       1.0000 0.18840  0.08130  0.35740  Biso   1.000  H
  C3       1.0000 0.02440  0.21110  0.23250  Biso   1.000  C
  H2       1.0000 0.95740  0.23100  0.30850  Biso   1.000  H
  H3       1.0000 0.08200  0.29730  0.18580  Biso   1.000  H
  C4       1.0000 0.92060  0.19440  0.13730  Biso   1.000  C
  H4       1.0000 0.84320  0.28410  0.11130  Biso   1.000  H
  H5       1.0000 0.98610  0.18620  0.05630  Biso   1.000  H
  C5       1.0000 0.83540  0.05580  0.20250  Biso   1.000  C
  H6       1.0000 0.77470  0.06820  0.28490  Biso   1.000  H
  C6       1.0000 0.95440  0.91450  0.24840  Biso   1.000  C
  H7       1.0000 0.02180  0.89940  0.17070  Biso   1.000  H
  H8       1.0000 0.89820  0.82680  0.29200  Biso   1.000  H
  C7       1.0000 0.05650  0.92850  0.34620  Biso   1.000  C
  H9       1.0000 0.13410  0.83880  0.37100  Biso   1.000  H
  H10      1.0000 0.99000  0.93420  0.42740  Biso   1.000  H
  C8       1.0000 0.71520  0.04120  0.12060  Biso   1.000  C
  C9       1.0000 0.37700  0.43000  0.70410  Biso   1.000  C
  H11      1.0000 0.31710  0.36340  0.69340  Biso   1.000  H
  C10      1.0000 0.37320  0.57380  0.61140  Biso   1.000  C
  H12      1.0000 0.31360  0.60200  0.53920  Biso   1.000  H
  C11      1.0000 0.45760  0.67500  0.62630  Biso   1.000  C
  C12      1.0000 0.54180  0.62820  0.73500  Biso   1.000  C
  H13      1.0000 0.59770  0.69500  0.75010  Biso   1.000  H
  C13      1.0000 0.54310  0.48210  0.82160  Biso   1.000  C
  H14      1.0000 0.60360  0.45120  0.89350  Biso   1.000  H
  C14      1.0000 0.45470  0.82930  0.52750  Biso   1.000  C
  H15      1.0000 0.41250  0.85230  0.44660  Biso   1.000  H
  N1       1.0000 0.46150  0.38140  0.80790  Biso   1.000  N
  N2       1.0000 0.50890  0.92940  0.55220  Biso   1.000  N
  O1       1.0000 0.31710  0.16810  0.08860  Biso   1.000  O
  O2       1.0000 0.34780  0.92050  0.19400  Biso   1.000  O
  O3       1.0000 0.65370  0.15870  0.03760  Biso   1.000  O
  O4       1.0000 0.68090  0.91070  0.14380  Biso   1.000  O
  Zn2      1.0000 0.51890  0.83910  0.06985  Biso   1.000  Zn
  C15      1.0000 0.72120  0.94870  0.82020  Biso   1.000  C
  C16      1.0000 0.85770  0.93050  0.71590  Biso   1.000  C
  H16      1.0000 0.81160  0.91870  0.64260  Biso   1.000  H
  C17      1.0000 0.97560  0.78890  0.76750  Biso   1.000  C
  H17      1.0000 0.04260  0.76900  0.69150  Biso   1.000  H
  H18      1.0000 0.91800  0.70270  0.81420  Biso   1.000  H
  C18      1.0000 0.07940  0.80560  0.86270  Biso   1.000  C
  H19      1.0000 0.15680  0.71590  0.88870  Biso   1.000  H
  H20      1.0000 0.01390  0.81380  0.94370  Biso   1.000  H
  C19      1.0000 0.16460  0.94420  0.79750  Biso   1.000  C
  H21      1.0000 0.22530  0.93180  0.71510  Biso   1.000  H
  C20      1.0000 0.04560  0.08550  0.75160  Biso   1.000  C
  H22      1.0000 0.97820  0.10060  0.82930  Biso   1.000  H
  H23      1.0000 0.10180  0.17320  0.70800  Biso   1.000  H
  C21      1.0000 0.94350  0.07150  0.65380  Biso   1.000  C
  H24      1.0000 0.86590  0.16120  0.62900  Biso   1.000  H
  H25      1.0000 0.01000  0.06580  0.57260  Biso   1.000  H
  C22      1.0000 0.28480  0.95880  0.87940  Biso   1.000  C
  C23      1.0000 0.62300  0.57000  0.29590  Biso   1.000  C
  H26      1.0000 0.68290  0.63660  0.30660  Biso   1.000  H
  C24      1.0000 0.62680  0.42620  0.38860  Biso   1.000  C
  H27      1.0000 0.68640  0.39800  0.46080  Biso   1.000  H
  C25      1.0000 0.54240  0.32500  0.37370  Biso   1.000  C
  C26      1.0000 0.45820  0.37180  0.26500  Biso   1.000  C
  H28      1.0000 0.40230  0.30500  0.24990  Biso   1.000  H
  C27      1.0000 0.45690  0.51790  0.17840  Biso   1.000  C
  H29      1.0000 0.39640  0.54880  0.10650  Biso   1.000  H
  C28      1.0000 0.54530  0.17070  0.47250  Biso   1.000  C
  H30      1.0000 0.58750  0.14770  0.55340  Biso   1.000  H
  N3       1.0000 0.53850  0.61860  0.19210  Biso   1.000  N
  N4       1.0000 0.49110  0.07060  0.44780  Biso   1.000  N
  O5       1.0000 0.68290  0.83190  0.91140  Biso   1.000  O
  O6       1.0000 0.65220  0.07950  0.80600  Biso   1.000  O
  O7       1.0000 0.34630  0.84130  0.96240  Biso   1.000  O
  O8       1.0000 0.31910  0.08930  0.85620  Biso   1.000  O
