data_image0
_cell_length_a       28.55
_cell_length_b       7.856
_cell_length_c       15.95
_cell_angle_alpha    90
_cell_angle_beta     104.98
_cell_angle_gamma    90

_symmetry_space_group_name_H-M    "P 1"
_symmetry_int_tables_number       1

loop_
  _symmetry_equiv_pos_as_xyz
  'x, y, z'

loop_
  _atom_site_label
  _atom_site_occupancy
  _atom_site_fract_x
  _atom_site_fract_y
  _atom_site_fract_z
  _atom_site_thermal_displace_type
  _atom_site_B_iso_or_equiv
  _atom_site_type_symbol
  Co1      1.0000 0.16399  0.22975  0.18267  Biso   1.000  Co
  O1       1.0000 0.19388  0.98810  0.18540  Biso   1.000  O
  O2       1.0000 0.16099  0.07660  0.05260  Biso   1.000  O
  O3       1.0000 0.17567  0.69850  0.80700  Biso   1.000  O
  O4       1.0000 0.19311  0.42220  0.82950  Biso   1.000  O
  N1       1.0000 0.22817  0.35710  0.16100  Biso   1.000  N
  H1       1.0000 0.24620  0.28030  0.14130  Biso   1.000  H
  H2       1.0000 0.24620  0.39750  0.21190  Biso   1.000  H
  N2       1.0000 0.11157  0.40130  0.11670  Biso   1.000  N
  N3       1.0000 0.01340  0.93600  0.02730  Biso   1.000  N
  C1       1.0000 0.21630  0.49480  0.09980  Biso   1.000  C
  C2       1.0000 0.20750  0.65500  0.12920  Biso   1.000  C
  H3       1.0000 0.21190  0.67390  0.18840  Biso   1.000  H
  C3       1.0000 0.19210  0.78830  0.07060  Biso   1.000  C
  C4       1.0000 0.18540  0.76060  0.98190  Biso   1.000  C
  H4       1.0000 0.17460  0.84870  0.94280  Biso   1.000  H
  C5       1.0000 0.19500  0.60000  0.95190  Biso   1.000  C
  C6       1.0000 0.21040  0.46700  0.01190  Biso   1.000  C
  H5       1.0000 0.21670  0.35970  0.99240  Biso   1.000  H
  C7       1.0000 0.18780  0.56830  0.85530  Biso   1.000  C
  C8       1.0000 0.18120  0.95990  0.10320  Biso   1.000  C
  C9       1.0000 0.09900  0.53380  0.15950  Biso   1.000  C
  H6       1.0000 0.11010  0.53600  0.21970  Biso   1.000  H
  C10      1.0000 0.07040  0.66800  0.11840  Biso   1.000  C
  H7       1.0000 0.06270  0.75710  0.15100  Biso   1.000  H
  C11      1.0000 0.05320  0.66980  0.02750  Biso   1.000  C
  C12      1.0000 0.06510  0.53610  0.98640  Biso   1.000  C
  H8       1.0000 0.05370  0.53060  0.92630  Biso   1.000  H
  C13      1.0000 0.09390  0.40390  0.02960  Biso   1.000  C
  H9       1.0000 0.10120  0.31360  0.99730  Biso   1.000  H
  C14      1.0000 0.02430  0.80970  0.98360  Biso   1.000  C
  H10      1.0000 0.01350  0.80920  0.92340  Biso   1.000  H
  Co2      1.0000 0.83601  0.22975  0.31733  Biso   1.000  Co
  O5       1.0000 0.80612  0.98810  0.31460  Biso   1.000  O
  O6       1.0000 0.83901  0.07660  0.44740  Biso   1.000  O
  O7       1.0000 0.82433  0.69850  0.69300  Biso   1.000  O
  O8       1.0000 0.80689  0.42220  0.67050  Biso   1.000  O
  N4       1.0000 0.77183  0.35710  0.33900  Biso   1.000  N
  H11      1.0000 0.75380  0.28030  0.35870  Biso   1.000  H
  H12      1.0000 0.75380  0.39750  0.28810  Biso   1.000  H
  N5       1.0000 0.88843  0.40130  0.38330  Biso   1.000  N
  N6       1.0000 0.98660  0.93600  0.47270  Biso   1.000  N
  C15      1.0000 0.78370  0.49480  0.40020  Biso   1.000  C
  C16      1.0000 0.79250  0.65500  0.37080  Biso   1.000  C
  H13      1.0000 0.78810  0.67390  0.31160  Biso   1.000  H
  C17      1.0000 0.80790  0.78830  0.42940  Biso   1.000  C
  C18      1.0000 0.81460  0.76060  0.51810  Biso   1.000  C
  H14      1.0000 0.82540  0.84870  0.55720  Biso   1.000  H
  C19      1.0000 0.80500  0.60000  0.54810  Biso   1.000  C
  C20      1.0000 0.78960  0.46700  0.48810  Biso   1.000  C
  H15      1.0000 0.78330  0.35970  0.50760  Biso   1.000  H
  C21      1.0000 0.81220  0.56830  0.64470  Biso   1.000  C
  C22      1.0000 0.81880  0.95990  0.39680  Biso   1.000  C
  C23      1.0000 0.90100  0.53380  0.34050  Biso   1.000  C
  H16      1.0000 0.88990  0.53600  0.28030  Biso   1.000  H
  C24      1.0000 0.92960  0.66800  0.38160  Biso   1.000  C
  H17      1.0000 0.93730  0.75710  0.34900  Biso   1.000  H
  C25      1.0000 0.94680  0.66980  0.47250  Biso   1.000  C
  C26      1.0000 0.93490  0.53610  0.51360  Biso   1.000  C
  H18      1.0000 0.94630  0.53060  0.57370  Biso   1.000  H
  C27      1.0000 0.90610  0.40390  0.47040  Biso   1.000  C
  H19      1.0000 0.89880  0.31360  0.50270  Biso   1.000  H
  C28      1.0000 0.97570  0.80970  0.51640  Biso   1.000  C
  H20      1.0000 0.98650  0.80920  0.57660  Biso   1.000  H
  Co3      1.0000 0.83601  0.77025  0.81733  Biso   1.000  Co
  O9       1.0000 0.80612  0.01190  0.81460  Biso   1.000  O
  O10      1.0000 0.83901  0.92340  0.94740  Biso   1.000  O
  O11      1.0000 0.82433  0.30150  0.19300  Biso   1.000  O
  O12      1.0000 0.80689  0.57780  0.17050  Biso   1.000  O
  N7       1.0000 0.77183  0.64290  0.83900  Biso   1.000  N
  H21      1.0000 0.75380  0.71970  0.85870  Biso   1.000  H
  H22      1.0000 0.75380  0.60250  0.78810  Biso   1.000  H
  N8       1.0000 0.88843  0.59870  0.88330  Biso   1.000  N
  N9       1.0000 0.98660  0.06400  0.97270  Biso   1.000  N
  C29      1.0000 0.78370  0.50520  0.90020  Biso   1.000  C
  C30      1.0000 0.79250  0.34500  0.87080  Biso   1.000  C
  H23      1.0000 0.78810  0.32610  0.81160  Biso   1.000  H
  C31      1.0000 0.80790  0.21170  0.92940  Biso   1.000  C
  C32      1.0000 0.81460  0.23940  0.01810  Biso   1.000  C
  H24      1.0000 0.82540  0.15130  0.05720  Biso   1.000  H
  C33      1.0000 0.80500  0.40000  0.04810  Biso   1.000  C
  C34      1.0000 0.78960  0.53300  0.98810  Biso   1.000  C
  H25      1.0000 0.78330  0.64030  0.00760  Biso   1.000  H
  C35      1.0000 0.81220  0.43170  0.14470  Biso   1.000  C
  C36      1.0000 0.81880  0.04010  0.89680  Biso   1.000  C
  C37      1.0000 0.90100  0.46620  0.84050  Biso   1.000  C
  H26      1.0000 0.88990  0.46400  0.78030  Biso   1.000  H
  C38      1.0000 0.92960  0.33200  0.88160  Biso   1.000  C
  H27      1.0000 0.93730  0.24290  0.84900  Biso   1.000  H
  C39      1.0000 0.94680  0.33020  0.97250  Biso   1.000  C
  C40      1.0000 0.93490  0.46390  0.01360  Biso   1.000  C
  H28      1.0000 0.94630  0.46940  0.07370  Biso   1.000  H
  C41      1.0000 0.90610  0.59610  0.97040  Biso   1.000  C
  H29      1.0000 0.89880  0.68640  0.00270  Biso   1.000  H
  C42      1.0000 0.97570  0.19030  0.01640  Biso   1.000  C
  H30      1.0000 0.98650  0.19080  0.07660  Biso   1.000  H
  Co4      1.0000 0.16399  0.77025  0.68267  Biso   1.000  Co
  O13      1.0000 0.19388  0.01190  0.68540  Biso   1.000  O
  O14      1.0000 0.16099  0.92340  0.55260  Biso   1.000  O
  O15      1.0000 0.17567  0.30150  0.30700  Biso   1.000  O
  O16      1.0000 0.19311  0.57780  0.32950  Biso   1.000  O
  N10      1.0000 0.22817  0.64290  0.66100  Biso   1.000  N
  H31      1.0000 0.24620  0.71970  0.64130  Biso   1.000  H
  H32      1.0000 0.24620  0.60250  0.71190  Biso   1.000  H
  N11      1.0000 0.11157  0.59870  0.61670  Biso   1.000  N
  N12      1.0000 0.01340  0.06400  0.52730  Biso   1.000  N
  C43      1.0000 0.21630  0.50520  0.59980  Biso   1.000  C
  C44      1.0000 0.20750  0.34500  0.62920  Biso   1.000  C
  H33      1.0000 0.21190  0.32610  0.68840  Biso   1.000  H
  C45      1.0000 0.19210  0.21170  0.57060  Biso   1.000  C
  C46      1.0000 0.18540  0.23940  0.48190  Biso   1.000  C
  H34      1.0000 0.17460  0.15130  0.44280  Biso   1.000  H
  C47      1.0000 0.19500  0.40000  0.45190  Biso   1.000  C
  C48      1.0000 0.21040  0.53300  0.51190  Biso   1.000  C
  H35      1.0000 0.21670  0.64030  0.49240  Biso   1.000  H
  C49      1.0000 0.18780  0.43170  0.35530  Biso   1.000  C
  C50      1.0000 0.18120  0.04010  0.60320  Biso   1.000  C
  C51      1.0000 0.09900  0.46620  0.65950  Biso   1.000  C
  H36      1.0000 0.11010  0.46400  0.71970  Biso   1.000  H
  C52      1.0000 0.07040  0.33200  0.61840  Biso   1.000  C
  H37      1.0000 0.06270  0.24290  0.65100  Biso   1.000  H
  C53      1.0000 0.05320  0.33020  0.52750  Biso   1.000  C
  C54      1.0000 0.06510  0.46390  0.48640  Biso   1.000  C
  H38      1.0000 0.05370  0.46940  0.42630  Biso   1.000  H
  C55      1.0000 0.09390  0.59610  0.52960  Biso   1.000  C
  H39      1.0000 0.10120  0.68640  0.49730  Biso   1.000  H
  C56      1.0000 0.02430  0.19030  0.48360  Biso   1.000  C
  H40      1.0000 0.01350  0.19080  0.42340  Biso   1.000  H
  Co5      1.0000 0.66399  0.72975  0.18267  Biso   1.000  Co
  O17      1.0000 0.69388  0.48810  0.18540  Biso   1.000  O
  O18      1.0000 0.66099  0.57660  0.05260  Biso   1.000  O
  O19      1.0000 0.67567  0.19850  0.80700  Biso   1.000  O
  O20      1.0000 0.69311  0.92220  0.82950  Biso   1.000  O
  N13      1.0000 0.72817  0.85710  0.16100  Biso   1.000  N
  H41      1.0000 0.74620  0.78030  0.14130  Biso   1.000  H
  H42      1.0000 0.74620  0.89750  0.21190  Biso   1.000  H
  N14      1.0000 0.61157  0.90130  0.11670  Biso   1.000  N
  N15      1.0000 0.51340  0.43600  0.02730  Biso   1.000  N
  C57      1.0000 0.71630  0.99480  0.09980  Biso   1.000  C
  C58      1.0000 0.70750  0.15500  0.12920  Biso   1.000  C
  H43      1.0000 0.71190  0.17390  0.18840  Biso   1.000  H
  C59      1.0000 0.69210  0.28830  0.07060  Biso   1.000  C
  C60      1.0000 0.68540  0.26060  0.98190  Biso   1.000  C
  H44      1.0000 0.67460  0.34870  0.94280  Biso   1.000  H
  C61      1.0000 0.69500  0.10000  0.95190  Biso   1.000  C
  C62      1.0000 0.71040  0.96700  0.01190  Biso   1.000  C
  H45      1.0000 0.71670  0.85970  0.99240  Biso   1.000  H
  C63      1.0000 0.68780  0.06830  0.85530  Biso   1.000  C
  C64      1.0000 0.68120  0.45990  0.10320  Biso   1.000  C
  C65      1.0000 0.59900  0.03380  0.15950  Biso   1.000  C
  H46      1.0000 0.61010  0.03600  0.21970  Biso   1.000  H
  C66      1.0000 0.57040  0.16800  0.11840  Biso   1.000  C
  H47      1.0000 0.56270  0.25710  0.15100  Biso   1.000  H
  C67      1.0000 0.55320  0.16980  0.02750  Biso   1.000  C
  C68      1.0000 0.56510  0.03610  0.98640  Biso   1.000  C
  H48      1.0000 0.55370  0.03060  0.92630  Biso   1.000  H
  C69      1.0000 0.59390  0.90390  0.02960  Biso   1.000  C
  H49      1.0000 0.60120  0.81360  0.99730  Biso   1.000  H
  C70      1.0000 0.52430  0.30970  0.98360  Biso   1.000  C
  H50      1.0000 0.51350  0.30920  0.92340  Biso   1.000  H
  Co6      1.0000 0.33601  0.72975  0.31733  Biso   1.000  Co
  O21      1.0000 0.30612  0.48810  0.31460  Biso   1.000  O
  O22      1.0000 0.33901  0.57660  0.44740  Biso   1.000  O
  O23      1.0000 0.32433  0.19850  0.69300  Biso   1.000  O
  O24      1.0000 0.30689  0.92220  0.67050  Biso   1.000  O
  N16      1.0000 0.27183  0.85710  0.33900  Biso   1.000  N
  H51      1.0000 0.25380  0.78030  0.35870  Biso   1.000  H
  H52      1.0000 0.25380  0.89750  0.28810  Biso   1.000  H
  N17      1.0000 0.38843  0.90130  0.38330  Biso   1.000  N
  N18      1.0000 0.48660  0.43600  0.47270  Biso   1.000  N
  C71      1.0000 0.28370  0.99480  0.40020  Biso   1.000  C
  C72      1.0000 0.29250  0.15500  0.37080  Biso   1.000  C
  H53      1.0000 0.28810  0.17390  0.31160  Biso   1.000  H
  C73      1.0000 0.30790  0.28830  0.42940  Biso   1.000  C
  C74      1.0000 0.31460  0.26060  0.51810  Biso   1.000  C
  H54      1.0000 0.32540  0.34870  0.55720  Biso   1.000  H
  C75      1.0000 0.30500  0.10000  0.54810  Biso   1.000  C
  C76      1.0000 0.28960  0.96700  0.48810  Biso   1.000  C
  H55      1.0000 0.28330  0.85970  0.50760  Biso   1.000  H
  C77      1.0000 0.31220  0.06830  0.64470  Biso   1.000  C
  C78      1.0000 0.31880  0.45990  0.39680  Biso   1.000  C
  C79      1.0000 0.40100  0.03380  0.34050  Biso   1.000  C
  H56      1.0000 0.38990  0.03600  0.28030  Biso   1.000  H
  C80      1.0000 0.42960  0.16800  0.38160  Biso   1.000  C
  H57      1.0000 0.43730  0.25710  0.34900  Biso   1.000  H
  C81      1.0000 0.44680  0.16980  0.47250  Biso   1.000  C
  C82      1.0000 0.43490  0.03610  0.51360  Biso   1.000  C
  H58      1.0000 0.44630  0.03060  0.57370  Biso   1.000  H
  C83      1.0000 0.40610  0.90390  0.47040  Biso   1.000  C
  H59      1.0000 0.39880  0.81360  0.50270  Biso   1.000  H
  C84      1.0000 0.47570  0.30970  0.51640  Biso   1.000  C
  H60      1.0000 0.48650  0.30920  0.57660  Biso   1.000  H
  Co7      1.0000 0.33601  0.27025  0.81733  Biso   1.000  Co
  O25      1.0000 0.30612  0.51190  0.81460  Biso   1.000  O
  O26      1.0000 0.33901  0.42340  0.94740  Biso   1.000  O
  O27      1.0000 0.32433  0.80150  0.19300  Biso   1.000  O
  O28      1.0000 0.30689  0.07780  0.17050  Biso   1.000  O
  N19      1.0000 0.27183  0.14290  0.83900  Biso   1.000  N
  H61      1.0000 0.25380  0.21970  0.85870  Biso   1.000  H
  H62      1.0000 0.25380  0.10250  0.78810  Biso   1.000  H
  N20      1.0000 0.38843  0.09870  0.88330  Biso   1.000  N
  N21      1.0000 0.48660  0.56400  0.97270  Biso   1.000  N
  C85      1.0000 0.28370  0.00520  0.90020  Biso   1.000  C
  C86      1.0000 0.29250  0.84500  0.87080  Biso   1.000  C
  H63      1.0000 0.28810  0.82610  0.81160  Biso   1.000  H
  C87      1.0000 0.30790  0.71170  0.92940  Biso   1.000  C
  C88      1.0000 0.31460  0.73940  0.01810  Biso   1.000  C
  H64      1.0000 0.32540  0.65130  0.05720  Biso   1.000  H
  C89      1.0000 0.30500  0.90000  0.04810  Biso   1.000  C
  C90      1.0000 0.28960  0.03300  0.98810  Biso   1.000  C
  H65      1.0000 0.28330  0.14030  0.00760  Biso   1.000  H
  C91      1.0000 0.31220  0.93170  0.14470  Biso   1.000  C
  C92      1.0000 0.31880  0.54010  0.89680  Biso   1.000  C
  C93      1.0000 0.40100  0.96620  0.84050  Biso   1.000  C
  H66      1.0000 0.38990  0.96400  0.78030  Biso   1.000  H
  C94      1.0000 0.42960  0.83200  0.88160  Biso   1.000  C
  H67      1.0000 0.43730  0.74290  0.84900  Biso   1.000  H
  C95      1.0000 0.44680  0.83020  0.97250  Biso   1.000  C
  C96      1.0000 0.43490  0.96390  0.01360  Biso   1.000  C
  H68      1.0000 0.44630  0.96940  0.07370  Biso   1.000  H
  C97      1.0000 0.40610  0.09610  0.97040  Biso   1.000  C
  H69      1.0000 0.39880  0.18640  0.00270  Biso   1.000  H
  C98      1.0000 0.47570  0.69030  0.01640  Biso   1.000  C
  H70      1.0000 0.48650  0.69080  0.07660  Biso   1.000  H
  Co8      1.0000 0.66399  0.27025  0.68267  Biso   1.000  Co
  O29      1.0000 0.69388  0.51190  0.68540  Biso   1.000  O
  O30      1.0000 0.66099  0.42340  0.55260  Biso   1.000  O
  O31      1.0000 0.67567  0.80150  0.30700  Biso   1.000  O
  O32      1.0000 0.69311  0.07780  0.32950  Biso   1.000  O
  N22      1.0000 0.72817  0.14290  0.66100  Biso   1.000  N
  H71      1.0000 0.74620  0.21970  0.64130  Biso   1.000  H
  H72      1.0000 0.74620  0.10250  0.71190  Biso   1.000  H
  N23      1.0000 0.61157  0.09870  0.61670  Biso   1.000  N
  N24      1.0000 0.51340  0.56400  0.52730  Biso   1.000  N
  C99      1.0000 0.71630  0.00520  0.59980  Biso   1.000  C
  C100     1.0000 0.70750  0.84500  0.62920  Biso   1.000  C
  H73      1.0000 0.71190  0.82610  0.68840  Biso   1.000  H
  C101     1.0000 0.69210  0.71170  0.57060  Biso   1.000  C
  C102     1.0000 0.68540  0.73940  0.48190  Biso   1.000  C
  H74      1.0000 0.67460  0.65130  0.44280  Biso   1.000  H
  C103     1.0000 0.69500  0.90000  0.45190  Biso   1.000  C
  C104     1.0000 0.71040  0.03300  0.51190  Biso   1.000  C
  H75      1.0000 0.71670  0.14030  0.49240  Biso   1.000  H
  C105     1.0000 0.68780  0.93170  0.35530  Biso   1.000  C
  C106     1.0000 0.68120  0.54010  0.60320  Biso   1.000  C
  C107     1.0000 0.59900  0.96620  0.65950  Biso   1.000  C
  H76      1.0000 0.61010  0.96400  0.71970  Biso   1.000  H
  C108     1.0000 0.57040  0.83200  0.61840  Biso   1.000  C
  H77      1.0000 0.56270  0.74290  0.65100  Biso   1.000  H
  C109     1.0000 0.55320  0.83020  0.52750  Biso   1.000  C
  C110     1.0000 0.56510  0.96390  0.48640  Biso   1.000  C
  H78      1.0000 0.55370  0.96940  0.42630  Biso   1.000  H
  C111     1.0000 0.59390  0.09610  0.52960  Biso   1.000  C
  H79      1.0000 0.60120  0.18640  0.49730  Biso   1.000  H
  C112     1.0000 0.52430  0.69030  0.48360  Biso   1.000  C
  H80      1.0000 0.51350  0.69080  0.42340  Biso   1.000  H
