data_image0
_cell_length_a       13.8557
_cell_length_b       15.1778
_cell_length_c       16.237
_cell_angle_alpha    102.734
_cell_angle_beta     115.096
_cell_angle_gamma    95.621

_symmetry_space_group_name_H-M    "P 1"
_symmetry_int_tables_number       1

loop_
  _symmetry_equiv_pos_as_xyz
  'x, y, z'

loop_
  _atom_site_label
  _atom_site_occupancy
  _atom_site_fract_x
  _atom_site_fract_y
  _atom_site_fract_z
  _atom_site_thermal_displace_type
  _atom_site_B_iso_or_equiv
  _atom_site_type_symbol
  Zn1      1.0000 0.37494  0.87817  0.13975  Biso   1.000  Zn
  Zn2      1.0000 0.26253  0.70903  0.18016  Biso   1.000  Zn
  Zn3      1.0000 0.36792  0.37599  0.13940  Biso   1.000  Zn
  Zn4      1.0000 0.41346  0.57802  0.27427  Biso   1.000  Zn
  Zn5      1.0000 0.25418  0.20894  0.18127  Biso   1.000  Zn
  Zn6      1.0000 0.41164  0.07906  0.27599  Biso   1.000  Zn
  P1       1.0000 0.52228  0.29124  0.30353  Biso   1.000  P
  P2       1.0000 0.29124  0.03797  0.04076  Biso   1.000  P
  P3       1.0000 0.22236  0.41628  0.25458  Biso   1.000  P
  P4       1.0000 0.52764  0.79043  0.30149  Biso   1.000  P
  P5       1.0000 0.28328  0.53323  0.03634  Biso   1.000  P
  P6       1.0000 0.61654  0.02264  0.23111  Biso   1.000  P
  P7       1.0000 0.31036  0.70101  0.39532  Biso   1.000  P
  P8       1.0000 0.21804  0.91283  0.24316  Biso   1.000  P
  P9       1.0000 0.60686  0.51241  0.21811  Biso   1.000  P
  P10      1.0000 0.13770  0.24693  0.96350  Biso   1.000  P
  P11      1.0000 0.30858  0.19849  0.39711  Biso   1.000  P
  O1       1.0000 0.41540  0.79640  0.23000  Biso   1.000  O
  O2       1.0000 0.07960  0.15050  0.91230  Biso   1.000  O
  O3       1.0000 0.53060  0.69720  0.32010  Biso   1.000  O
  O4       1.0000 0.31180  0.94950  0.22650  Biso   1.000  O
  O5       1.0000 0.32000  0.57600  0.97550  Biso   1.000  O
  O6       1.0000 0.41000  0.29620  0.23250  Biso   1.000  O
  O7       1.0000 0.29410  0.63010  0.44350  Biso   1.000  O
  O8       1.0000 0.31880  0.09940  0.13830  Biso   1.000  O
  O9       1.0000 0.50000  0.48960  0.22190  Biso   1.000  O
  O10      1.0000 0.30660  0.45100  0.22570  Biso   1.000  O
  O11      1.0000 0.31220  0.43890  0.03500  Biso   1.000  O
  O12      1.0000 0.52660  0.19920  0.32400  Biso   1.000  O
  O13      1.0000 0.68660  0.45370  0.25680  Biso   1.000  O
  O14      1.0000 0.19720  0.80990  0.23010  Biso   1.000  O
  O15      1.0000 0.18850  0.28670  0.90710  Biso   1.000  O
  O16      1.0000 0.67270  0.12250  0.29980  Biso   1.000  O
  O17      1.0000 0.41230  0.27150  0.46350  Biso   1.000  O
  O18      1.0000 0.26040  0.45980  0.36250  Biso   1.000  O
  O19      1.0000 0.58130  0.50300  0.11240  Biso   1.000  O
  O20      1.0000 0.36250  0.09120  0.00520  Biso   1.000  O
  O21      1.0000 0.22470  0.26250  0.06470  Biso   1.000  O
  O22      1.0000 0.17020  0.02430  0.96960  Biso   1.000  O
  O23      1.0000 0.05320  0.30900  0.96170  Biso   1.000  O
  O24      1.0000 0.20720  0.74610  0.37290  Biso   1.000  O
  O25      1.0000 0.11590  0.94050  0.17350  Biso   1.000  O
  O26      1.0000 0.60990  0.02750  0.13310  Biso   1.000  O
  O27      1.0000 0.11500  0.45020  0.20120  Biso   1.000  O
  O28      1.0000 0.30880  0.65680  0.30010  Biso   1.000  O
  O29      1.0000 0.19700  0.31270  0.23660  Biso   1.000  O
  O30      1.0000 0.66310  0.61440  0.27570  Biso   1.000  O
  O31      1.0000 0.30510  0.15560  0.30090  Biso   1.000  O
  O32      1.0000 0.29080  0.12500  0.44280  Biso   1.000  O
  O33      1.0000 0.50360  0.99680  0.22230  Biso   1.000  O
  O34      1.0000 0.55930  0.37310  0.39470  Biso   1.000  O
  O35      1.0000 0.60700  0.30380  0.26520  Biso   1.000  O
  O36      1.0000 0.41270  0.77650  0.46100  Biso   1.000  O
  O37      1.0000 0.61330  0.80440  0.26390  Biso   1.000  O
  O38      1.0000 0.31030  0.94140  0.03690  Biso   1.000  O
  O39      1.0000 0.20810  0.24580  0.37820  Biso   1.000  O
  O40      1.0000 0.56300  0.87190  0.39250  Biso   1.000  O
  O41      1.0000 0.23750  0.95700  0.34560  Biso   1.000  O
  O42      1.0000 0.69080  0.95920  0.26580  Biso   1.000  O
  O43      1.0000 0.32370  0.59760  0.13600  Biso   1.000  O
  O44      1.0000 0.15470  0.51720  0.98270  Biso   1.000  O
  Zn7      1.0000 0.62506  0.12183  0.86025  Biso   1.000  Zn
  Zn8      1.0000 0.73747  0.29097  0.81984  Biso   1.000  Zn
  Zn9      1.0000 0.63208  0.62401  0.86060  Biso   1.000  Zn
  Zn10     1.0000 0.58654  0.42198  0.72573  Biso   1.000  Zn
  Zn11     1.0000 0.74582  0.79106  0.81873  Biso   1.000  Zn
  Zn12     1.0000 0.58836  0.92094  0.72401  Biso   1.000  Zn
  P12      1.0000 0.47772  0.70876  0.69647  Biso   1.000  P
  P13      1.0000 0.70876  0.96203  0.95924  Biso   1.000  P
  P14      1.0000 0.77764  0.58372  0.74542  Biso   1.000  P
  P15      1.0000 0.47236  0.20957  0.69851  Biso   1.000  P
  P16      1.0000 0.71672  0.46677  0.96366  Biso   1.000  P
  P17      1.0000 0.38346  0.97736  0.76889  Biso   1.000  P
  P18      1.0000 0.68964  0.29899  0.60468  Biso   1.000  P
  P19      1.0000 0.78196  0.08717  0.75684  Biso   1.000  P
  P20      1.0000 0.39314  0.48759  0.78189  Biso   1.000  P
  P21      1.0000 0.86230  0.75307  0.03650  Biso   1.000  P
  P22      1.0000 0.69142  0.80151  0.60289  Biso   1.000  P
  O45      1.0000 0.58460  0.20360  0.77000  Biso   1.000  O
  O46      1.0000 0.92040  0.84950  0.08770  Biso   1.000  O
  O47      1.0000 0.46940  0.30280  0.67990  Biso   1.000  O
  O48      1.0000 0.68820  0.05050  0.77350  Biso   1.000  O
  O49      1.0000 0.68000  0.42400  0.02450  Biso   1.000  O
  O50      1.0000 0.59000  0.70380  0.76750  Biso   1.000  O
  O51      1.0000 0.70590  0.36990  0.55650  Biso   1.000  O
  O52      1.0000 0.68120  0.90060  0.86170  Biso   1.000  O
  O53      1.0000 0.50000  0.51040  0.77810  Biso   1.000  O
  O54      1.0000 0.69340  0.54900  0.77430  Biso   1.000  O
  O55      1.0000 0.68780  0.56110  0.96500  Biso   1.000  O
  O56      1.0000 0.47340  0.80080  0.67600  Biso   1.000  O
  O57      1.0000 0.31340  0.54630  0.74320  Biso   1.000  O
  O58      1.0000 0.80280  0.19010  0.76990  Biso   1.000  O
  O59      1.0000 0.81150  0.71330  0.09290  Biso   1.000  O
  O60      1.0000 0.32730  0.87750  0.70020  Biso   1.000  O
  O61      1.0000 0.58770  0.72850  0.53650  Biso   1.000  O
  O62      1.0000 0.73960  0.54020  0.63750  Biso   1.000  O
  O63      1.0000 0.41870  0.49700  0.88760  Biso   1.000  O
  O64      1.0000 0.63750  0.90880  0.99480  Biso   1.000  O
  O65      1.0000 0.77530  0.73750  0.93530  Biso   1.000  O
  O66      1.0000 0.82980  0.97570  0.03040  Biso   1.000  O
  O67      1.0000 0.94680  0.69100  0.03830  Biso   1.000  O
  O68      1.0000 0.79280  0.25390  0.62710  Biso   1.000  O
  O69      1.0000 0.88410  0.05950  0.82650  Biso   1.000  O
  O70      1.0000 0.39010  0.97250  0.86690  Biso   1.000  O
  O71      1.0000 0.88500  0.54980  0.79880  Biso   1.000  O
  O72      1.0000 0.69120  0.34320  0.69990  Biso   1.000  O
  O73      1.0000 0.80300  0.68730  0.76340  Biso   1.000  O
  O74      1.0000 0.33690  0.38560  0.72430  Biso   1.000  O
  O75      1.0000 0.69490  0.84440  0.69910  Biso   1.000  O
  O76      1.0000 0.70920  0.87500  0.55720  Biso   1.000  O
  O77      1.0000 0.49640  0.00320  0.77770  Biso   1.000  O
  O78      1.0000 0.44070  0.62690  0.60530  Biso   1.000  O
  O79      1.0000 0.39300  0.69620  0.73480  Biso   1.000  O
  O80      1.0000 0.58730  0.22350  0.53900  Biso   1.000  O
  O81      1.0000 0.38670  0.19560  0.73610  Biso   1.000  O
  O82      1.0000 0.68970  0.05860  0.96310  Biso   1.000  O
  O83      1.0000 0.79190  0.75420  0.62180  Biso   1.000  O
  O84      1.0000 0.43700  0.12810  0.60750  Biso   1.000  O
  O85      1.0000 0.76250  0.04300  0.65440  Biso   1.000  O
  O86      1.0000 0.30920  0.04080  0.73420  Biso   1.000  O
  O87      1.0000 0.67630  0.40240  0.86400  Biso   1.000  O
  O88      1.0000 0.84530  0.48280  0.01730  Biso   1.000  O
