data_image0
_cell_length_a       24.307
_cell_length_b       24.5206
_cell_length_c       25.3072
_cell_angle_alpha    118.393
_cell_angle_beta     111.787
_cell_angle_gamma    93.769

_symmetry_space_group_name_H-M    "P 1"
_symmetry_int_tables_number       1

loop_
  _symmetry_equiv_pos_as_xyz
  'x, y, z'

loop_
  _atom_site_label
  _atom_site_occupancy
  _atom_site_fract_x
  _atom_site_fract_y
  _atom_site_fract_z
  _atom_site_thermal_displace_type
  _atom_site_B_iso_or_equiv
  _atom_site_type_symbol
  Cu1      1.0000 0.48448  0.73717  0.84426  Biso   1.000  Cu
  Cu2      1.0000 0.53480  0.38954  0.75776  Biso   1.000  Cu
  Cu3      1.0000 0.48031  0.81420  0.95808  Biso   1.000  Cu
  Cu4      1.0000 0.45147  0.64802  0.15703  Biso   1.000  Cu
  Cu5      1.0000 0.78845  0.59275  0.44640  Biso   1.000  Cu
  Cu6      1.0000 0.43117  0.84069  0.58448  Biso   1.000  Cu
  Cu7      1.0000 0.77044  0.82658  0.78660  Biso   1.000  Cu
  Cu8      1.0000 0.88560  0.62178  0.43099  Biso   1.000  Cu
  Cu9      1.0000 0.41495  0.95453  0.61048  Biso   1.000  Cu
  Cu10     1.0000 0.86042  0.93485  0.88205  Biso   1.000  Cu
  Cu11     1.0000 0.17034  0.51644  0.28737  Biso   1.000  Cu
  Cu12     1.0000 0.05960  0.51722  0.21369  Biso   1.000  Cu
  O1       1.0000 0.39208  0.76318  0.90203  Biso   1.000  O
  O2       1.0000 0.42040  0.86300  0.66388  Biso   1.000  O
  O3       1.0000 0.51146  0.68233  0.88025  Biso   1.000  O
  O4       1.0000 0.49944  0.74547  0.97323  Biso   1.000  O
  O5       1.0000 0.54168  0.67580  0.19509  Biso   1.000  O
  O6       1.0000 0.46052  0.87559  0.92989  Biso   1.000  O
  O7       1.0000 0.54460  0.47354  0.83420  Biso   1.000  O
  O8       1.0000 0.75313  0.62700  0.38930  Biso   1.000  O
  O9       1.0000 0.47190  0.69870  0.30839  Biso   1.000  O
  O10      1.0000 0.56944  0.79330  0.89273  Biso   1.000  O
  O11      1.0000 0.54740  0.44020  0.90374  Biso   1.000  O
  O12      1.0000 0.39833  0.68970  0.80979  Biso   1.000  O
  O13      1.0000 0.45501  0.80400  0.82867  Biso   1.000  O
  O14      1.0000 0.45480  0.72926  0.23481  Biso   1.000  O
  O15      1.0000 0.74350  0.84640  0.85710  Biso   1.000  O
  O16      1.0000 0.44110  0.83360  0.50885  Biso   1.000  O
  O17      1.0000 0.50440  0.99070  0.67157  Biso   1.000  O
  O18      1.0000 0.17170  0.21370  0.17810  Biso   1.000  O
  O19      1.0000 0.40250  0.95790  0.68473  Biso   1.000  O
  O20      1.0000 0.37432  0.59050  0.20500  Biso   1.000  O
  O21      1.0000 0.51930  0.89230  0.64530  Biso   1.000  O
  O22      1.0000 0.92341  0.59210  0.49170  Biso   1.000  O
  O23      1.0000 0.04480  0.42420  0.16050  Biso   1.000  O
  O24      1.0000 0.72345  0.88170  0.76430  Biso   1.000  O
  O25      1.0000 0.34080  0.80830  0.52689  Biso   1.000  O
  O26      1.0000 0.81190  0.82490  0.73190  Biso   1.000  O
  O27      1.0000 0.83400  0.64820  0.37220  Biso   1.000  O
  O28      1.0000 0.84060  0.56310  0.50230  Biso   1.000  O
  O29      1.0000 0.14840  0.46810  0.64725  Biso   1.000  O
  O30      1.0000 0.88990  0.91690  0.81540  Biso   1.000  O
  O31      1.0000 0.55310  0.63830  0.26290  Biso   1.000  O
  O32      1.0000 0.82460  0.68080  0.52648  Biso   1.000  O
  O33      1.0000 0.81930  0.93990  0.93710  Biso   1.000  O
  O34      1.0000 0.43260  0.93290  0.53412  Biso   1.000  O
  O35      1.0000 0.36258  0.61190  0.12520  Biso   1.000  O
  O36      1.0000 0.23328  0.49050  0.63450  Biso   1.000  O
  O37      1.0000 0.19470  0.52500  0.22540  Biso   1.000  O
  O38      1.0000 0.18290  0.61090  0.33750  Biso   1.000  O
  O39      1.0000 0.57035  0.85420  0.99260  Biso   1.000  O
  O40      1.0000 0.09620  0.12110  0.09400  Biso   1.000  O
  O41      1.0000 0.90370  0.70840  0.50990  Biso   1.000  O
  O42      1.0000 0.80230  0.97440  0.84350  Biso   1.000  O
  O43      1.0000 0.32780  0.90590  0.54620  Biso   1.000  O
  C1       1.0000 0.52450  0.64960  0.95770  Biso   1.000  C
  O44      1.0000 0.13640  0.42140  0.22330  Biso   1.000  O
  O45      1.0000 0.10200  0.52790  0.16370  Biso   1.000  O
  O46      1.0000 0.96050  0.49290  0.72150  Biso   1.000  O
  C2       1.0000 0.52990  0.59140  0.91500  Biso   1.000  C
  C3       1.0000 0.43370  0.90280  0.84870  Biso   1.000  C
  C4       1.0000 0.42800  0.88740  0.78550  Biso   1.000  C
  O47      1.0000 0.86490  0.49230  0.65850  Biso   1.000  O
  O48      1.0000 0.08780  0.61200  0.27530  Biso   1.000  O
  C5       1.0000 0.46290  0.73860  0.29100  Biso   1.000  C
  C6       1.0000 0.54070  0.54560  0.93380  Biso   1.000  C
  C7       1.0000 0.41380  0.93120  0.76530  Biso   1.000  C
  C8       1.0000 0.65810  0.88130  0.98010  Biso   1.000  C
  C9       1.0000 0.45170  0.85740  0.87030  Biso   1.000  C
  C10      1.0000 0.36970  0.71220  0.84510  Biso   1.000  C
  C11      1.0000 0.42640  0.96140  0.89090  Biso   1.000  C
  C12      1.0000 0.54350  0.48080  0.88700  Biso   1.000  C
  C13      1.0000 0.22180  0.57240  0.72750  Biso   1.000  C
  C14      1.0000 0.70810  0.98020  0.77820  Biso   1.000  C
  C15      1.0000 0.68340  0.86820  0.93640  Biso   1.000  C
  C16      1.0000 0.57390  0.66110  0.23550  Biso   1.000  C
  C17      1.0000 0.28190  0.61030  0.75410  Biso   1.000  C
  C18      1.0000 0.46080  0.80310  0.34050  Biso   1.000  C
  C19      1.0000 0.18290  0.59400  0.75910  Biso   1.000  C
  C20      1.0000 0.60670  0.98440  0.72010  Biso   1.000  C
  C21      1.0000 0.11860  0.18220  0.12930  Biso   1.000  C
  C22      1.0000 0.53820  0.62040  0.03870  Biso   1.000  C
  C23      1.0000 0.30600  0.67270  0.81470  Biso   1.000  C
  C24      1.0000 0.07950  0.21960  0.10910  Biso   1.000  C
  C25      1.0000 0.89460  0.78480  0.60690  Biso   1.000  C
  C26      1.0000 0.51120  0.69610  0.93510  Biso   1.000  C
  C27      1.0000 0.54490  0.55870  0.99720  Biso   1.000  C
  C28      1.0000 0.40690  0.98860  0.80560  Biso   1.000  C
  C29      1.0000 0.52860  0.66500  0.01940  Biso   1.000  C
  C30      1.0000 0.64500  0.94850  0.73440  Biso   1.000  C
  C31      1.0000 0.89670  0.56890  0.51370  Biso   1.000  C
  C32      1.0000 0.44870  0.86850  0.43910  Biso   1.000  C
  C33      1.0000 0.94700  0.51320  0.63530  Biso   1.000  C
  C34      1.0000 0.27330  0.57570  0.12950  Biso   1.000  C
  C35      1.0000 0.41260  0.91590  0.69880  Biso   1.000  C
  C36      1.0000 0.77950  0.64370  0.36320  Biso   1.000  C
  C37      1.0000 0.67570  0.65490  0.30040  Biso   1.000  C
  C38      1.0000 0.06380  0.32280  0.13260  Biso   1.000  C
  C39      1.0000 0.87410  0.71970  0.54370  Biso   1.000  C
  C40      1.0000 0.63960  0.67110  0.25390  Biso   1.000  C
  C41      1.0000 0.08170  0.39610  0.17570  Biso   1.000  C
  C42      1.0000 0.46550  0.85310  0.32960  Biso   1.000  C
  C43      1.0000 0.86130  0.86600  0.75620  Biso   1.000  C
  C44      1.0000 0.20890  0.65690  0.81880  Biso   1.000  C
  C45      1.0000 0.34170  0.59470  0.15520  Biso   1.000  C
  C46      1.0000 0.77130  0.89780  0.91400  Biso   1.000  C
  C47      1.0000 0.59510  0.83890  0.95440  Biso   1.000  C
  C48      1.0000 0.74150  0.90810  0.96050  Biso   1.000  C
  C49      1.0000 0.26850  0.69710  0.84660  Biso   1.000  C
  C50      1.0000 0.53740  0.95430  0.67610  Biso   1.000  C
  C51      1.0000 0.24900  0.55880  0.16350  Biso   1.000  C
  C52      1.0000 0.90800  0.52990  0.59090  Biso   1.000  C
  C53      1.0000 0.41340  0.00520  0.87040  Biso   1.000  C
  C54      1.0000 0.74730  0.94180  0.79660  Biso   1.000  C
  C55      1.0000 0.45420  0.81020  0.39570  Biso   1.000  C
  C56      1.0000 0.24520  0.81000  0.46080  Biso   1.000  C
  C57      1.0000 0.02130  0.18620  0.05110  Biso   1.000  C
  C58      1.0000 0.89040  0.85480  0.70970  Biso   1.000  C
  C59      1.0000 0.63090  0.05370  0.74920  Biso   1.000  C
  C60      1.0000 0.93370  0.54800  0.55890  Biso   1.000  C
  C61      1.0000 0.19950  0.50500  0.66480  Biso   1.000  C
  C62      1.0000 0.73990  0.66250  0.31560  Biso   1.000  C
  C63      1.0000 0.00730  0.51220  0.64520  Biso   1.000  C
  C64      1.0000 0.86430  0.79480  0.64710  Biso   1.000  C
  C65      1.0000 0.92180  0.49800  0.67470  Biso   1.000  C
  C66      1.0000 0.14330  0.63880  0.32230  Biso   1.000  C
  C67      1.0000 0.10100  0.28570  0.14930  Biso   1.000  C
  C68      1.0000 0.68920  0.93200  0.04880  Biso   1.000  C
  C69      1.0000 0.22370  0.74260  0.42090  Biso   1.000  C
  C70      1.0000 0.00390  0.29030  0.07400  Biso   1.000  C
  C71      1.0000 0.45270  0.92160  0.43030  Biso   1.000  C
  C72      1.0000 0.99570  0.54860  0.56840  Biso   1.000  C
  C73      1.0000 0.03080  0.52990  0.61000  Biso   1.000  C
  C74      1.0000 0.31010  0.84570  0.51670  Biso   1.000  C
  C75      1.0000 0.45980  0.91170  0.37430  Biso   1.000  C
  C76      1.0000 0.18480  0.54620  0.14200  Biso   1.000  C
  C77      1.0000 0.15730  0.53180  0.18010  Biso   1.000  C
  C78      1.0000 0.98490  0.22330  0.03550  Biso   1.000  C
  C79      1.0000 0.44000  0.87960  0.49970  Biso   1.000  C
  C80      1.0000 0.73550  0.04700  0.80840  Biso   1.000  C
  C81      1.0000 0.16330  0.71130  0.36650  Biso   1.000  C
  C82      1.0000 0.66440  0.69530  0.22500  Biso   1.000  C
  C83      1.0000 0.69570  0.08300  0.79340  Biso   1.000  C
  C84      1.0000 0.77530  0.96050  0.03020  Biso   1.000  C
  C85      1.0000 0.23600  0.57600  0.07230  Biso   1.000  C
  C86      1.0000 0.14460  0.54610  0.08480  Biso   1.000  C
  C87      1.0000 0.94270  0.90410  0.73110  Biso   1.000  C
  C88      1.0000 0.73070  0.70470  0.24240  Biso   1.000  C
  C89      1.0000 0.94620  0.83250  0.62500  Biso   1.000  C
  C90      1.0000 0.17110  0.56340  0.05140  Biso   1.000  C
  C91      1.0000 0.76710  0.68650  0.28680  Biso   1.000  C
  C92      1.0000 0.96910  0.89340  0.68750  Biso   1.000  C
  C93      1.0000 0.74710  0.97140  0.07210  Biso   1.000  C
  C94      1.0000 0.20710  0.84820  0.44810  Biso   1.000  C
  C95      1.0000 0.12410  0.74330  0.34790  Biso   1.000  C
  C96      1.0000 0.14460  0.81130  0.38750  Biso   1.000  C
  Cu13     1.0000 0.51552  0.26283  0.15574  Biso   1.000  Cu
  Cu14     1.0000 0.46520  0.61046  0.24224  Biso   1.000  Cu
  Cu15     1.0000 0.51969  0.18580  0.04192  Biso   1.000  Cu
  Cu16     1.0000 0.54853  0.35198  0.84297  Biso   1.000  Cu
  Cu17     1.0000 0.21155  0.40725  0.55360  Biso   1.000  Cu
  Cu18     1.0000 0.56883  0.15931  0.41552  Biso   1.000  Cu
  Cu19     1.0000 0.22956  0.17342  0.21340  Biso   1.000  Cu
  Cu20     1.0000 0.11440  0.37822  0.56901  Biso   1.000  Cu
  Cu21     1.0000 0.58505  0.04547  0.38952  Biso   1.000  Cu
  Cu22     1.0000 0.13958  0.06515  0.11795  Biso   1.000  Cu
  Cu23     1.0000 0.82966  0.48356  0.71263  Biso   1.000  Cu
  Cu24     1.0000 0.94040  0.48278  0.78631  Biso   1.000  Cu
  O49      1.0000 0.60792  0.23682  0.09797  Biso   1.000  O
  O50      1.0000 0.57960  0.13700  0.33612  Biso   1.000  O
  O51      1.0000 0.48854  0.31767  0.11975  Biso   1.000  O
  O52      1.0000 0.50056  0.25453  0.02677  Biso   1.000  O
  O53      1.0000 0.45832  0.32420  0.80491  Biso   1.000  O
  O54      1.0000 0.53948  0.12441  0.07011  Biso   1.000  O
  O55      1.0000 0.45540  0.52646  0.16580  Biso   1.000  O
  O56      1.0000 0.24687  0.37300  0.61070  Biso   1.000  O
  O57      1.0000 0.52810  0.30130  0.69161  Biso   1.000  O
  O58      1.0000 0.43056  0.20670  0.10727  Biso   1.000  O
  O59      1.0000 0.45260  0.55980  0.09626  Biso   1.000  O
  O60      1.0000 0.60167  0.31030  0.19021  Biso   1.000  O
  O61      1.0000 0.54499  0.19600  0.17133  Biso   1.000  O
  O62      1.0000 0.54520  0.27074  0.76519  Biso   1.000  O
  O63      1.0000 0.25650  0.15360  0.14290  Biso   1.000  O
  O64      1.0000 0.55890  0.16640  0.49115  Biso   1.000  O
  O65      1.0000 0.49560  0.00930  0.32843  Biso   1.000  O
  O66      1.0000 0.82830  0.78630  0.82190  Biso   1.000  O
  O67      1.0000 0.59750  0.04210  0.31527  Biso   1.000  O
  O68      1.0000 0.62568  0.40950  0.79500  Biso   1.000  O
  O69      1.0000 0.48070  0.10770  0.35470  Biso   1.000  O
  O70      1.0000 0.07659  0.40790  0.50830  Biso   1.000  O
  O71      1.0000 0.95520  0.57580  0.83950  Biso   1.000  O
  O72      1.0000 0.27655  0.11830  0.23570  Biso   1.000  O
  O73      1.0000 0.65920  0.19170  0.47311  Biso   1.000  O
  O74      1.0000 0.18810  0.17510  0.26810  Biso   1.000  O
  O75      1.0000 0.16600  0.35180  0.62780  Biso   1.000  O
  O76      1.0000 0.15940  0.43690  0.49770  Biso   1.000  O
  O77      1.0000 0.85160  0.53190  0.35275  Biso   1.000  O
  O78      1.0000 0.11010  0.08310  0.18460  Biso   1.000  O
  O79      1.0000 0.44690  0.36170  0.73710  Biso   1.000  O
  O80      1.0000 0.17540  0.31920  0.47352  Biso   1.000  O
  O81      1.0000 0.18070  0.06010  0.06290  Biso   1.000  O
  O82      1.0000 0.56740  0.06710  0.46588  Biso   1.000  O
  O83      1.0000 0.63742  0.38810  0.87480  Biso   1.000  O
  O84      1.0000 0.76672  0.50950  0.36550  Biso   1.000  O
  O85      1.0000 0.80530  0.47500  0.77460  Biso   1.000  O
  O86      1.0000 0.81710  0.38910  0.66250  Biso   1.000  O
  O87      1.0000 0.42965  0.14580  0.00740  Biso   1.000  O
  O88      1.0000 0.90380  0.87890  0.90600  Biso   1.000  O
  O89      1.0000 0.09630  0.29160  0.49010  Biso   1.000  O
  O90      1.0000 0.19770  0.02560  0.15650  Biso   1.000  O
  O91      1.0000 0.67220  0.09410  0.45380  Biso   1.000  O
  C97      1.0000 0.47550  0.35040  0.04230  Biso   1.000  C
  O92      1.0000 0.86360  0.57860  0.77670  Biso   1.000  O
  O93      1.0000 0.89800  0.47210  0.83630  Biso   1.000  O
  O94      1.0000 0.03950  0.50710  0.27850  Biso   1.000  O
  C98      1.0000 0.47010  0.40860  0.08500  Biso   1.000  C
  C99      1.0000 0.56630  0.09720  0.15130  Biso   1.000  C
  C100     1.0000 0.57200  0.11260  0.21450  Biso   1.000  C
  O95      1.0000 0.13510  0.50770  0.34150  Biso   1.000  O
  O96      1.0000 0.91220  0.38800  0.72470  Biso   1.000  O
  C101     1.0000 0.53710  0.26140  0.70900  Biso   1.000  C
  C102     1.0000 0.45930  0.45440  0.06620  Biso   1.000  C
  C103     1.0000 0.58620  0.06880  0.23470  Biso   1.000  C
  C104     1.0000 0.34190  0.11870  0.01990  Biso   1.000  C
  C105     1.0000 0.54830  0.14260  0.12970  Biso   1.000  C
  C106     1.0000 0.63030  0.28780  0.15490  Biso   1.000  C
  C107     1.0000 0.57360  0.03860  0.10910  Biso   1.000  C
  C108     1.0000 0.45650  0.51920  0.11300  Biso   1.000  C
  C109     1.0000 0.77820  0.42760  0.27250  Biso   1.000  C
  C110     1.0000 0.29190  0.01980  0.22180  Biso   1.000  C
  C111     1.0000 0.31660  0.13180  0.06360  Biso   1.000  C
  C112     1.0000 0.42610  0.33890  0.76450  Biso   1.000  C
  C113     1.0000 0.71810  0.38970  0.24590  Biso   1.000  C
  C114     1.0000 0.53920  0.19690  0.65950  Biso   1.000  C
  C115     1.0000 0.81710  0.40600  0.24090  Biso   1.000  C
  C116     1.0000 0.39330  0.01560  0.27990  Biso   1.000  C
  C117     1.0000 0.88140  0.81780  0.87070  Biso   1.000  C
  C118     1.0000 0.46180  0.37960  0.96130  Biso   1.000  C
  C119     1.0000 0.69400  0.32730  0.18530  Biso   1.000  C
  C120     1.0000 0.92050  0.78040  0.89090  Biso   1.000  C
  C121     1.0000 0.10540  0.21520  0.39310  Biso   1.000  C
  C122     1.0000 0.48880  0.30390  0.06490  Biso   1.000  C
  C123     1.0000 0.45510  0.44130  0.00280  Biso   1.000  C
  C124     1.0000 0.59310  0.01140  0.19440  Biso   1.000  C
  C125     1.0000 0.47140  0.33500  0.98060  Biso   1.000  C
  C126     1.0000 0.35500  0.05150  0.26560  Biso   1.000  C
  C127     1.0000 0.10330  0.43110  0.48630  Biso   1.000  C
  C128     1.0000 0.55130  0.13150  0.56090  Biso   1.000  C
  C129     1.0000 0.05300  0.48680  0.36470  Biso   1.000  C
  C130     1.0000 0.72670  0.42430  0.87050  Biso   1.000  C
  C131     1.0000 0.58740  0.08410  0.30120  Biso   1.000  C
  C132     1.0000 0.22050  0.35630  0.63680  Biso   1.000  C
  C133     1.0000 0.32430  0.34510  0.69960  Biso   1.000  C
  C134     1.0000 0.93620  0.67720  0.86740  Biso   1.000  C
  C135     1.0000 0.12590  0.28030  0.45630  Biso   1.000  C
  C136     1.0000 0.36040  0.32890  0.74610  Biso   1.000  C
  C137     1.0000 0.91830  0.60390  0.82430  Biso   1.000  C
  C138     1.0000 0.53450  0.14690  0.67040  Biso   1.000  C
  C139     1.0000 0.13870  0.13400  0.24380  Biso   1.000  C
  C140     1.0000 0.79110  0.34310  0.18120  Biso   1.000  C
  C141     1.0000 0.65830  0.40530  0.84480  Biso   1.000  C
  C142     1.0000 0.22870  0.10220  0.08600  Biso   1.000  C
  C143     1.0000 0.40490  0.16110  0.04560  Biso   1.000  C
  C144     1.0000 0.25850  0.09190  0.03950  Biso   1.000  C
  C145     1.0000 0.73150  0.30290  0.15340  Biso   1.000  C
  C146     1.0000 0.46260  0.04570  0.32390  Biso   1.000  C
  C147     1.0000 0.75100  0.44120  0.83650  Biso   1.000  C
  C148     1.0000 0.09200  0.47010  0.40910  Biso   1.000  C
  C149     1.0000 0.58660  0.99480  0.12960  Biso   1.000  C
  C150     1.0000 0.25270  0.05820  0.20340  Biso   1.000  C
  C151     1.0000 0.54580  0.18980  0.60430  Biso   1.000  C
  C152     1.0000 0.75480  0.19000  0.53920  Biso   1.000  C
  C153     1.0000 0.97870  0.81380  0.94890  Biso   1.000  C
  C154     1.0000 0.10960  0.14520  0.29030  Biso   1.000  C
  C155     1.0000 0.36910  0.94630  0.25080  Biso   1.000  C
  C156     1.0000 0.06630  0.45200  0.44110  Biso   1.000  C
  C157     1.0000 0.80050  0.49500  0.33520  Biso   1.000  C
  C158     1.0000 0.26010  0.33750  0.68440  Biso   1.000  C
  C159     1.0000 0.99270  0.48780  0.35480  Biso   1.000  C
  C160     1.0000 0.13570  0.20520  0.35290  Biso   1.000  C
  C161     1.0000 0.07820  0.50200  0.32530  Biso   1.000  C
  C162     1.0000 0.85670  0.36120  0.67770  Biso   1.000  C
  C163     1.0000 0.89900  0.71430  0.85070  Biso   1.000  C
  C164     1.0000 0.31080  0.06800  0.95120  Biso   1.000  C
  C165     1.0000 0.77630  0.25740  0.57910  Biso   1.000  C
  C166     1.0000 0.99610  0.70970  0.92600  Biso   1.000  C
  C167     1.0000 0.54730  0.07840  0.56970  Biso   1.000  C
  C168     1.0000 0.00430  0.45140  0.43160  Biso   1.000  C
  C169     1.0000 0.96920  0.47010  0.39000  Biso   1.000  C
  C170     1.0000 0.68990  0.15430  0.48330  Biso   1.000  C
  C171     1.0000 0.54020  0.08830  0.62570  Biso   1.000  C
  C172     1.0000 0.81520  0.45380  0.85800  Biso   1.000  C
  C173     1.0000 0.84270  0.46820  0.81990  Biso   1.000  C
  C174     1.0000 0.01510  0.77670  0.96450  Biso   1.000  C
  C175     1.0000 0.56000  0.12040  0.50030  Biso   1.000  C
  C176     1.0000 0.26450  0.95300  0.19160  Biso   1.000  C
  C177     1.0000 0.83670  0.28870  0.63350  Biso   1.000  C
  C178     1.0000 0.33560  0.30470  0.77500  Biso   1.000  C
  C179     1.0000 0.30430  0.91700  0.20660  Biso   1.000  C
  C180     1.0000 0.22470  0.03950  0.96980  Biso   1.000  C
  C181     1.0000 0.76400  0.42400  0.92770  Biso   1.000  C
  C182     1.0000 0.85540  0.45390  0.91520  Biso   1.000  C
  C183     1.0000 0.05730  0.09590  0.26890  Biso   1.000  C
  C184     1.0000 0.26930  0.29530  0.75760  Biso   1.000  C
  C185     1.0000 0.05380  0.16750  0.37500  Biso   1.000  C
  C186     1.0000 0.82890  0.43660  0.94860  Biso   1.000  C
  C187     1.0000 0.23290  0.31350  0.71320  Biso   1.000  C
  C188     1.0000 0.03090  0.10660  0.31250  Biso   1.000  C
  C189     1.0000 0.25290  0.02860  0.92790  Biso   1.000  C
  C190     1.0000 0.79290  0.15180  0.55190  Biso   1.000  C
  C191     1.0000 0.87590  0.25670  0.65210  Biso   1.000  C
  C192     1.0000 0.85540  0.18870  0.61250  Biso   1.000  C
