data_image0
_cell_length_a       28.6286
_cell_length_b       19.0072
_cell_length_c       32.4063
_cell_angle_alpha    90
_cell_angle_beta     114.321
_cell_angle_gamma    90

_symmetry_space_group_name_H-M    "P 1"
_symmetry_int_tables_number       1

loop_
  _symmetry_equiv_pos_as_xyz
  'x, y, z'

loop_
  _atom_site_label
  _atom_site_occupancy
  _atom_site_fract_x
  _atom_site_fract_y
  _atom_site_fract_z
  _atom_site_thermal_displace_type
  _atom_site_B_iso_or_equiv
  _atom_site_type_symbol
  W1       1.0000 0.41967  0.83773  0.11924  Biso   1.000  W
  W2       1.0000 0.67847  0.66030  0.23509  Biso   1.000  W
  W3       1.0000 0.43865  0.44559  0.12307  Biso   1.000  W
  Fe1      1.0000 0.60692  0.91843  0.23421  Biso   1.000  Fe
  Fe2      1.0000 0.28422  0.62817  0.09087  Biso   1.000  Fe
  Fe3      1.0000 0.62834  0.38856  0.24700  Biso   1.000  Fe
  Fe4      1.0000 0.52762  0.65314  0.06932  Biso   1.000  Fe
  C1       1.0000 0.45260  0.75870  0.17090  Biso   1.000  C
  N1       1.0000 0.47150  0.71900  0.19920  Biso   1.000  N
  C2       1.0000 0.40900  0.87450  0.17740  Biso   1.000  C
  N2       1.0000 0.40450  0.89350  0.20890  Biso   1.000  N
  C3       1.0000 0.49390  0.87390  0.16540  Biso   1.000  C
  N3       1.0000 0.53360  0.89170  0.19110  Biso   1.000  N
  C4       1.0000 0.46580  0.77070  0.09830  Biso   1.000  C
  N4       1.0000 0.48980  0.73170  0.08700  Biso   1.000  N
  C5       1.0000 0.36200  0.75870  0.10850  Biso   1.000  C
  N5       1.0000 0.33160  0.71540  0.10180  Biso   1.000  N
  C6       1.0000 0.35070  0.90200  0.09700  Biso   1.000  C
  N6       1.0000 0.31380  0.93380  0.08390  Biso   1.000  N
  C7       1.0000 0.38110  0.82710  0.04620  Biso   1.000  C
  N7       1.0000 0.35860  0.82150  0.00840  Biso   1.000  N
  C8       1.0000 0.44110  0.92940  0.09390  Biso   1.000  C
  N8       1.0000 0.45310  0.97780  0.08090  Biso   1.000  N
  C9       1.0000 0.60810  0.65630  0.24330  Biso   1.000  C
  N9       1.0000 0.56980  0.65100  0.24660  Biso   1.000  N
  C10      1.0000 0.64970  0.76500  0.23300  Biso   1.000  C
  N10      1.0000 0.63420  0.82130  0.23140  Biso   1.000  N
  C11      1.0000 0.65720  0.55070  0.23520  Biso   1.000  C
  N11      1.0000 0.64630  0.49430  0.23820  Biso   1.000  N
  C12      1.0000 0.62100  0.64860  0.16810  Biso   1.000  C
  N12      1.0000 0.58800  0.64620  0.13180  Biso   1.000  N
  C13      1.0000 0.69940  0.63890  0.30550  Biso   1.000  C
  N13      1.0000 0.70830  0.62850  0.34260  Biso   1.000  N
  C14      1.0000 0.74000  0.59540  0.23570  Biso   1.000  C
  N14      1.0000 0.77380  0.56030  0.23660  Biso   1.000  N
  C15      1.0000 0.70390  0.71270  0.18820  Biso   1.000  C
  N15      1.0000 0.72440  0.74970  0.17100  Biso   1.000  N
  N16      1.0000 0.71310  0.73040  0.15820  Biso   1.000  N
  C16      1.0000 0.74520  0.72340  0.27450  Biso   1.000  C
  N17      1.0000 0.77990  0.75830  0.29450  Biso   1.000  N
  C17      1.0000 0.46540  0.52600  0.17480  Biso   1.000  C
  N18      1.0000 0.47760  0.56870  0.20200  Biso   1.000  N
  C18      1.0000 0.51180  0.41280  0.17310  Biso   1.000  C
  N19      1.0000 0.55190  0.39780  0.19970  Biso   1.000  N
  C19      1.0000 0.40700  0.41890  0.17120  Biso   1.000  C
  N20      1.0000 0.39150  0.40730  0.19830  Biso   1.000  N
  C20      1.0000 0.46860  0.53020  0.09680  Biso   1.000  C
  N21      1.0000 0.48710  0.57370  0.08380  Biso   1.000  N
  C21      1.0000 0.37700  0.51880  0.10960  Biso   1.000  C
  N22      1.0000 0.34460  0.55840  0.10320  Biso   1.000  N
  C22      1.0000 0.43320  0.33390  0.12700  Biso   1.000  C
  N23      1.0000 0.43110  0.27180  0.12990  Biso   1.000  N
  C23      1.0000 0.41380  0.33900  0.11210  Biso   1.000  C
  N24      1.0000 0.40270  0.28170  0.10930  Biso   1.000  N
  C24      1.0000 0.37580  0.42060  0.05970  Biso   1.000  C
  N25      1.0000 0.34490  0.41120  0.02440  Biso   1.000  N
  C25      1.0000 0.38870  0.44120  0.05210  Biso   1.000  C
  N26      1.0000 0.36180  0.44600  0.01670  Biso   1.000  N
  C26      1.0000 0.47770  0.39820  0.08540  Biso   1.000  C
  N27      1.0000 0.49800  0.37530  0.06410  Biso   1.000  N
  W4       1.0000 0.58033  0.83773  0.38076  Biso   1.000  W
  W5       1.0000 0.32153  0.66030  0.26491  Biso   1.000  W
  W6       1.0000 0.56135  0.44559  0.37693  Biso   1.000  W
  Fe5      1.0000 0.39308  0.91843  0.26579  Biso   1.000  Fe
  Fe6      1.0000 0.71578  0.62817  0.40913  Biso   1.000  Fe
  Fe7      1.0000 0.37166  0.38856  0.25300  Biso   1.000  Fe
  Fe8      1.0000 0.47238  0.65314  0.43068  Biso   1.000  Fe
  C27      1.0000 0.54740  0.75870  0.32910  Biso   1.000  C
  N28      1.0000 0.52850  0.71900  0.30080  Biso   1.000  N
  C28      1.0000 0.59100  0.87450  0.32260  Biso   1.000  C
  N29      1.0000 0.59550  0.89350  0.29110  Biso   1.000  N
  C29      1.0000 0.50610  0.87390  0.33460  Biso   1.000  C
  N30      1.0000 0.46640  0.89170  0.30890  Biso   1.000  N
  C30      1.0000 0.53420  0.77070  0.40170  Biso   1.000  C
  N31      1.0000 0.51020  0.73170  0.41300  Biso   1.000  N
  C31      1.0000 0.63800  0.75870  0.39150  Biso   1.000  C
  N32      1.0000 0.66840  0.71540  0.39820  Biso   1.000  N
  C32      1.0000 0.64930  0.90200  0.40300  Biso   1.000  C
  N33      1.0000 0.68620  0.93380  0.41610  Biso   1.000  N
  C33      1.0000 0.61890  0.82710  0.45380  Biso   1.000  C
  N34      1.0000 0.64140  0.82150  0.49160  Biso   1.000  N
  C34      1.0000 0.55890  0.92940  0.40610  Biso   1.000  C
  N35      1.0000 0.54690  0.97780  0.41910  Biso   1.000  N
  C35      1.0000 0.39190  0.65630  0.25670  Biso   1.000  C
  N36      1.0000 0.43020  0.65100  0.25340  Biso   1.000  N
  C36      1.0000 0.35030  0.76500  0.26700  Biso   1.000  C
  N37      1.0000 0.36580  0.82130  0.26860  Biso   1.000  N
  C37      1.0000 0.34280  0.55070  0.26480  Biso   1.000  C
  N38      1.0000 0.35370  0.49430  0.26180  Biso   1.000  N
  C38      1.0000 0.37900  0.64860  0.33190  Biso   1.000  C
  N39      1.0000 0.41200  0.64620  0.36820  Biso   1.000  N
  C39      1.0000 0.30060  0.63890  0.19450  Biso   1.000  C
  N40      1.0000 0.29170  0.62850  0.15740  Biso   1.000  N
  C40      1.0000 0.26000  0.59540  0.26430  Biso   1.000  C
  N41      1.0000 0.22620  0.56030  0.26340  Biso   1.000  N
  C41      1.0000 0.29610  0.71270  0.31180  Biso   1.000  C
  N42      1.0000 0.27560  0.74970  0.32900  Biso   1.000  N
  N43      1.0000 0.28690  0.73040  0.34180  Biso   1.000  N
  C42      1.0000 0.25480  0.72340  0.22550  Biso   1.000  C
  N44      1.0000 0.22010  0.75830  0.20550  Biso   1.000  N
  C43      1.0000 0.53460  0.52600  0.32520  Biso   1.000  C
  N45      1.0000 0.52240  0.56870  0.29800  Biso   1.000  N
  C44      1.0000 0.48820  0.41280  0.32690  Biso   1.000  C
  N46      1.0000 0.44810  0.39780  0.30030  Biso   1.000  N
  C45      1.0000 0.59300  0.41890  0.32880  Biso   1.000  C
  N47      1.0000 0.60850  0.40730  0.30170  Biso   1.000  N
  C46      1.0000 0.53140  0.53020  0.40320  Biso   1.000  C
  N48      1.0000 0.51290  0.57370  0.41620  Biso   1.000  N
  C47      1.0000 0.62300  0.51880  0.39040  Biso   1.000  C
  N49      1.0000 0.65540  0.55840  0.39680  Biso   1.000  N
  C48      1.0000 0.56680  0.33390  0.37300  Biso   1.000  C
  N50      1.0000 0.56890  0.27180  0.37010  Biso   1.000  N
  C49      1.0000 0.58620  0.33900  0.38790  Biso   1.000  C
  N51      1.0000 0.59730  0.28170  0.39070  Biso   1.000  N
  C50      1.0000 0.62420  0.42060  0.44030  Biso   1.000  C
  N52      1.0000 0.65510  0.41120  0.47560  Biso   1.000  N
  C51      1.0000 0.61130  0.44120  0.44790  Biso   1.000  C
  N53      1.0000 0.63820  0.44600  0.48330  Biso   1.000  N
  C52      1.0000 0.52230  0.39820  0.41460  Biso   1.000  C
  N54      1.0000 0.50200  0.37530  0.43590  Biso   1.000  N
  Fe9      1.0000 0.50000  0.64566  0.25000  Biso   1.000  Fe
  W7       1.0000 0.91967  0.33773  0.11924  Biso   1.000  W
  W8       1.0000 0.17847  0.16030  0.23509  Biso   1.000  W
  W9       1.0000 0.93865  0.94559  0.12307  Biso   1.000  W
  Fe10     1.0000 0.10692  0.41843  0.23421  Biso   1.000  Fe
  Fe11     1.0000 0.78422  0.12817  0.09087  Biso   1.000  Fe
  Fe12     1.0000 0.12834  0.88856  0.24700  Biso   1.000  Fe
  Fe13     1.0000 0.02762  0.15314  0.06932  Biso   1.000  Fe
  C53      1.0000 0.95260  0.25870  0.17090  Biso   1.000  C
  N55      1.0000 0.97150  0.21900  0.19920  Biso   1.000  N
  C54      1.0000 0.90900  0.37450  0.17740  Biso   1.000  C
  N56      1.0000 0.90450  0.39350  0.20890  Biso   1.000  N
  C55      1.0000 0.99390  0.37390  0.16540  Biso   1.000  C
  N57      1.0000 0.03360  0.39170  0.19110  Biso   1.000  N
  C56      1.0000 0.96580  0.27070  0.09830  Biso   1.000  C
  N58      1.0000 0.98980  0.23170  0.08700  Biso   1.000  N
  C57      1.0000 0.86200  0.25870  0.10850  Biso   1.000  C
  N59      1.0000 0.83160  0.21540  0.10180  Biso   1.000  N
  C58      1.0000 0.85070  0.40200  0.09700  Biso   1.000  C
  N60      1.0000 0.81380  0.43380  0.08390  Biso   1.000  N
  C59      1.0000 0.88110  0.32710  0.04620  Biso   1.000  C
  N61      1.0000 0.85860  0.32150  0.00840  Biso   1.000  N
  C60      1.0000 0.94110  0.42940  0.09390  Biso   1.000  C
  N62      1.0000 0.95310  0.47780  0.08090  Biso   1.000  N
  C61      1.0000 0.10810  0.15630  0.24330  Biso   1.000  C
  N63      1.0000 0.06980  0.15100  0.24660  Biso   1.000  N
  C62      1.0000 0.14970  0.26500  0.23300  Biso   1.000  C
  N64      1.0000 0.13420  0.32130  0.23140  Biso   1.000  N
  C63      1.0000 0.15720  0.05070  0.23520  Biso   1.000  C
  N65      1.0000 0.14630  0.99430  0.23820  Biso   1.000  N
  C64      1.0000 0.12100  0.14860  0.16810  Biso   1.000  C
  N66      1.0000 0.08800  0.14620  0.13180  Biso   1.000  N
  C65      1.0000 0.19940  0.13890  0.30550  Biso   1.000  C
  N67      1.0000 0.20830  0.12850  0.34260  Biso   1.000  N
  C66      1.0000 0.24000  0.09540  0.23570  Biso   1.000  C
  N68      1.0000 0.27380  0.06030  0.23660  Biso   1.000  N
  C67      1.0000 0.20390  0.21270  0.18820  Biso   1.000  C
  N69      1.0000 0.22440  0.24970  0.17100  Biso   1.000  N
  N70      1.0000 0.21310  0.23040  0.15820  Biso   1.000  N
  C68      1.0000 0.24520  0.22340  0.27450  Biso   1.000  C
  N71      1.0000 0.27990  0.25830  0.29450  Biso   1.000  N
  C69      1.0000 0.96540  0.02600  0.17480  Biso   1.000  C
  N72      1.0000 0.97760  0.06870  0.20200  Biso   1.000  N
  C70      1.0000 0.01180  0.91280  0.17310  Biso   1.000  C
  N73      1.0000 0.05190  0.89780  0.19970  Biso   1.000  N
  C71      1.0000 0.90700  0.91890  0.17120  Biso   1.000  C
  N74      1.0000 0.89150  0.90730  0.19830  Biso   1.000  N
  C72      1.0000 0.96860  0.03020  0.09680  Biso   1.000  C
  N75      1.0000 0.98710  0.07370  0.08380  Biso   1.000  N
  C73      1.0000 0.87700  0.01880  0.10960  Biso   1.000  C
  N76      1.0000 0.84460  0.05840  0.10320  Biso   1.000  N
  C74      1.0000 0.93320  0.83390  0.12700  Biso   1.000  C
  N77      1.0000 0.93110  0.77180  0.12990  Biso   1.000  N
  C75      1.0000 0.91380  0.83900  0.11210  Biso   1.000  C
  N78      1.0000 0.90270  0.78170  0.10930  Biso   1.000  N
  C76      1.0000 0.87580  0.92060  0.05970  Biso   1.000  C
  N79      1.0000 0.84490  0.91120  0.02440  Biso   1.000  N
  C77      1.0000 0.88870  0.94120  0.05210  Biso   1.000  C
  N80      1.0000 0.86180  0.94600  0.01670  Biso   1.000  N
  C78      1.0000 0.97770  0.89820  0.08540  Biso   1.000  C
  N81      1.0000 0.99800  0.87530  0.06410  Biso   1.000  N
  W10      1.0000 0.08033  0.33773  0.38076  Biso   1.000  W
  W11      1.0000 0.82153  0.16030  0.26491  Biso   1.000  W
  W12      1.0000 0.06135  0.94559  0.37693  Biso   1.000  W
  Fe14     1.0000 0.89308  0.41843  0.26579  Biso   1.000  Fe
  Fe15     1.0000 0.21578  0.12817  0.40913  Biso   1.000  Fe
  Fe16     1.0000 0.87166  0.88856  0.25300  Biso   1.000  Fe
  Fe17     1.0000 0.97238  0.15314  0.43068  Biso   1.000  Fe
  C79      1.0000 0.04740  0.25870  0.32910  Biso   1.000  C
  N82      1.0000 0.02850  0.21900  0.30080  Biso   1.000  N
  C80      1.0000 0.09100  0.37450  0.32260  Biso   1.000  C
  N83      1.0000 0.09550  0.39350  0.29110  Biso   1.000  N
  C81      1.0000 0.00610  0.37390  0.33460  Biso   1.000  C
  N84      1.0000 0.96640  0.39170  0.30890  Biso   1.000  N
  C82      1.0000 0.03420  0.27070  0.40170  Biso   1.000  C
  N85      1.0000 0.01020  0.23170  0.41300  Biso   1.000  N
  C83      1.0000 0.13800  0.25870  0.39150  Biso   1.000  C
  N86      1.0000 0.16840  0.21540  0.39820  Biso   1.000  N
  C84      1.0000 0.14930  0.40200  0.40300  Biso   1.000  C
  N87      1.0000 0.18620  0.43380  0.41610  Biso   1.000  N
  C85      1.0000 0.11890  0.32710  0.45380  Biso   1.000  C
  N88      1.0000 0.14140  0.32150  0.49160  Biso   1.000  N
  C86      1.0000 0.05890  0.42940  0.40610  Biso   1.000  C
  N89      1.0000 0.04690  0.47780  0.41910  Biso   1.000  N
  C87      1.0000 0.89190  0.15630  0.25670  Biso   1.000  C
  N90      1.0000 0.93020  0.15100  0.25340  Biso   1.000  N
  C88      1.0000 0.85030  0.26500  0.26700  Biso   1.000  C
  N91      1.0000 0.86580  0.32130  0.26860  Biso   1.000  N
  C89      1.0000 0.84280  0.05070  0.26480  Biso   1.000  C
  N92      1.0000 0.85370  0.99430  0.26180  Biso   1.000  N
  C90      1.0000 0.87900  0.14860  0.33190  Biso   1.000  C
  N93      1.0000 0.91200  0.14620  0.36820  Biso   1.000  N
  C91      1.0000 0.80060  0.13890  0.19450  Biso   1.000  C
  N94      1.0000 0.79170  0.12850  0.15740  Biso   1.000  N
  C92      1.0000 0.76000  0.09540  0.26430  Biso   1.000  C
  N95      1.0000 0.72620  0.06030  0.26340  Biso   1.000  N
  C93      1.0000 0.79610  0.21270  0.31180  Biso   1.000  C
  N96      1.0000 0.77560  0.24970  0.32900  Biso   1.000  N
  N97      1.0000 0.78690  0.23040  0.34180  Biso   1.000  N
  C94      1.0000 0.75480  0.22340  0.22550  Biso   1.000  C
  N98      1.0000 0.72010  0.25830  0.20550  Biso   1.000  N
  C95      1.0000 0.03460  0.02600  0.32520  Biso   1.000  C
  N99      1.0000 0.02240  0.06870  0.29800  Biso   1.000  N
  C96      1.0000 0.98820  0.91280  0.32690  Biso   1.000  C
  N100     1.0000 0.94810  0.89780  0.30030  Biso   1.000  N
  C97      1.0000 0.09300  0.91890  0.32880  Biso   1.000  C
  N101     1.0000 0.10850  0.90730  0.30170  Biso   1.000  N
  C98      1.0000 0.03140  0.03020  0.40320  Biso   1.000  C
  N102     1.0000 0.01290  0.07370  0.41620  Biso   1.000  N
  C99      1.0000 0.12300  0.01880  0.39040  Biso   1.000  C
  N103     1.0000 0.15540  0.05840  0.39680  Biso   1.000  N
  C100     1.0000 0.06680  0.83390  0.37300  Biso   1.000  C
  N104     1.0000 0.06890  0.77180  0.37010  Biso   1.000  N
  C101     1.0000 0.08620  0.83900  0.38790  Biso   1.000  C
  N105     1.0000 0.09730  0.78170  0.39070  Biso   1.000  N
  C102     1.0000 0.12420  0.92060  0.44030  Biso   1.000  C
  N106     1.0000 0.15510  0.91120  0.47560  Biso   1.000  N
  C103     1.0000 0.11130  0.94120  0.44790  Biso   1.000  C
  N107     1.0000 0.13820  0.94600  0.48330  Biso   1.000  N
  C104     1.0000 0.02230  0.89820  0.41460  Biso   1.000  C
  N108     1.0000 0.00200  0.87530  0.43590  Biso   1.000  N
  Fe18     1.0000 0.00000  0.14566  0.25000  Biso   1.000  Fe
  W13      1.0000 0.58033  0.16227  0.88076  Biso   1.000  W
  W14      1.0000 0.32153  0.33970  0.76491  Biso   1.000  W
  W15      1.0000 0.56135  0.55441  0.87693  Biso   1.000  W
  Fe19     1.0000 0.39308  0.08157  0.76579  Biso   1.000  Fe
  Fe20     1.0000 0.71578  0.37183  0.90913  Biso   1.000  Fe
  Fe21     1.0000 0.37166  0.61144  0.75300  Biso   1.000  Fe
  Fe22     1.0000 0.47238  0.34686  0.93068  Biso   1.000  Fe
  C105     1.0000 0.54740  0.24130  0.82910  Biso   1.000  C
  N109     1.0000 0.52850  0.28100  0.80080  Biso   1.000  N
  C106     1.0000 0.59100  0.12550  0.82260  Biso   1.000  C
  N110     1.0000 0.59550  0.10650  0.79110  Biso   1.000  N
  C107     1.0000 0.50610  0.12610  0.83460  Biso   1.000  C
  N111     1.0000 0.46640  0.10830  0.80890  Biso   1.000  N
  C108     1.0000 0.53420  0.22930  0.90170  Biso   1.000  C
  N112     1.0000 0.51020  0.26830  0.91300  Biso   1.000  N
  C109     1.0000 0.63800  0.24130  0.89150  Biso   1.000  C
  N113     1.0000 0.66840  0.28460  0.89820  Biso   1.000  N
  C110     1.0000 0.64930  0.09800  0.90300  Biso   1.000  C
  N114     1.0000 0.68620  0.06620  0.91610  Biso   1.000  N
  C111     1.0000 0.61890  0.17290  0.95380  Biso   1.000  C
  N115     1.0000 0.64140  0.17850  0.99160  Biso   1.000  N
  C112     1.0000 0.55890  0.07060  0.90610  Biso   1.000  C
  N116     1.0000 0.54690  0.02220  0.91910  Biso   1.000  N
  C113     1.0000 0.39190  0.34370  0.75670  Biso   1.000  C
  N117     1.0000 0.43020  0.34900  0.75340  Biso   1.000  N
  C114     1.0000 0.35030  0.23500  0.76700  Biso   1.000  C
  N118     1.0000 0.36580  0.17870  0.76860  Biso   1.000  N
  C115     1.0000 0.34280  0.44930  0.76480  Biso   1.000  C
  N119     1.0000 0.35370  0.50570  0.76180  Biso   1.000  N
  C116     1.0000 0.37900  0.35140  0.83190  Biso   1.000  C
  N120     1.0000 0.41200  0.35380  0.86820  Biso   1.000  N
  C117     1.0000 0.30060  0.36110  0.69450  Biso   1.000  C
  N121     1.0000 0.29170  0.37150  0.65740  Biso   1.000  N
  C118     1.0000 0.26000  0.40460  0.76430  Biso   1.000  C
  N122     1.0000 0.22620  0.43970  0.76340  Biso   1.000  N
  C119     1.0000 0.29610  0.28730  0.81180  Biso   1.000  C
  N123     1.0000 0.27560  0.25030  0.82900  Biso   1.000  N
  N124     1.0000 0.28690  0.26960  0.84180  Biso   1.000  N
  C120     1.0000 0.25480  0.27660  0.72550  Biso   1.000  C
  N125     1.0000 0.22010  0.24170  0.70550  Biso   1.000  N
  C121     1.0000 0.53460  0.47400  0.82520  Biso   1.000  C
  N126     1.0000 0.52240  0.43130  0.79800  Biso   1.000  N
  C122     1.0000 0.48820  0.58720  0.82690  Biso   1.000  C
  N127     1.0000 0.44810  0.60220  0.80030  Biso   1.000  N
  C123     1.0000 0.59300  0.58110  0.82880  Biso   1.000  C
  N128     1.0000 0.60850  0.59270  0.80170  Biso   1.000  N
  C124     1.0000 0.53140  0.46980  0.90320  Biso   1.000  C
  N129     1.0000 0.51290  0.42630  0.91620  Biso   1.000  N
  C125     1.0000 0.62300  0.48120  0.89040  Biso   1.000  C
  N130     1.0000 0.65540  0.44160  0.89680  Biso   1.000  N
  C126     1.0000 0.56680  0.66610  0.87300  Biso   1.000  C
  N131     1.0000 0.56890  0.72820  0.87010  Biso   1.000  N
  C127     1.0000 0.58620  0.66100  0.88790  Biso   1.000  C
  N132     1.0000 0.59730  0.71830  0.89070  Biso   1.000  N
  C128     1.0000 0.62420  0.57940  0.94030  Biso   1.000  C
  N133     1.0000 0.65510  0.58880  0.97560  Biso   1.000  N
  C129     1.0000 0.61130  0.55880  0.94790  Biso   1.000  C
  N134     1.0000 0.63820  0.55400  0.98330  Biso   1.000  N
  C130     1.0000 0.52230  0.60180  0.91460  Biso   1.000  C
  N135     1.0000 0.50200  0.62470  0.93590  Biso   1.000  N
  W16      1.0000 0.41967  0.16227  0.61924  Biso   1.000  W
  W17      1.0000 0.67847  0.33970  0.73509  Biso   1.000  W
  W18      1.0000 0.43865  0.55441  0.62307  Biso   1.000  W
  Fe23     1.0000 0.60692  0.08157  0.73421  Biso   1.000  Fe
  Fe24     1.0000 0.28422  0.37183  0.59087  Biso   1.000  Fe
  Fe25     1.0000 0.62834  0.61144  0.74700  Biso   1.000  Fe
  Fe26     1.0000 0.52762  0.34686  0.56932  Biso   1.000  Fe
  C131     1.0000 0.45260  0.24130  0.67090  Biso   1.000  C
  N136     1.0000 0.47150  0.28100  0.69920  Biso   1.000  N
  C132     1.0000 0.40900  0.12550  0.67740  Biso   1.000  C
  N137     1.0000 0.40450  0.10650  0.70890  Biso   1.000  N
  C133     1.0000 0.49390  0.12610  0.66540  Biso   1.000  C
  N138     1.0000 0.53360  0.10830  0.69110  Biso   1.000  N
  C134     1.0000 0.46580  0.22930  0.59830  Biso   1.000  C
  N139     1.0000 0.48980  0.26830  0.58700  Biso   1.000  N
  C135     1.0000 0.36200  0.24130  0.60850  Biso   1.000  C
  N140     1.0000 0.33160  0.28460  0.60180  Biso   1.000  N
  C136     1.0000 0.35070  0.09800  0.59700  Biso   1.000  C
  N141     1.0000 0.31380  0.06620  0.58390  Biso   1.000  N
  C137     1.0000 0.38110  0.17290  0.54620  Biso   1.000  C
  N142     1.0000 0.35860  0.17850  0.50840  Biso   1.000  N
  C138     1.0000 0.44110  0.07060  0.59390  Biso   1.000  C
  N143     1.0000 0.45310  0.02220  0.58090  Biso   1.000  N
  C139     1.0000 0.60810  0.34370  0.74330  Biso   1.000  C
  N144     1.0000 0.56980  0.34900  0.74660  Biso   1.000  N
  C140     1.0000 0.64970  0.23500  0.73300  Biso   1.000  C
  N145     1.0000 0.63420  0.17870  0.73140  Biso   1.000  N
  C141     1.0000 0.65720  0.44930  0.73520  Biso   1.000  C
  N146     1.0000 0.64630  0.50570  0.73820  Biso   1.000  N
  C142     1.0000 0.62100  0.35140  0.66810  Biso   1.000  C
  N147     1.0000 0.58800  0.35380  0.63180  Biso   1.000  N
  C143     1.0000 0.69940  0.36110  0.80550  Biso   1.000  C
  N148     1.0000 0.70830  0.37150  0.84260  Biso   1.000  N
  C144     1.0000 0.74000  0.40460  0.73570  Biso   1.000  C
  N149     1.0000 0.77380  0.43970  0.73660  Biso   1.000  N
  C145     1.0000 0.70390  0.28730  0.68820  Biso   1.000  C
  N150     1.0000 0.72440  0.25030  0.67100  Biso   1.000  N
  N151     1.0000 0.71310  0.26960  0.65820  Biso   1.000  N
  C146     1.0000 0.74520  0.27660  0.77450  Biso   1.000  C
  N152     1.0000 0.77990  0.24170  0.79450  Biso   1.000  N
  C147     1.0000 0.46540  0.47400  0.67480  Biso   1.000  C
  N153     1.0000 0.47760  0.43130  0.70200  Biso   1.000  N
  C148     1.0000 0.51180  0.58720  0.67310  Biso   1.000  C
  N154     1.0000 0.55190  0.60220  0.69970  Biso   1.000  N
  C149     1.0000 0.40700  0.58110  0.67120  Biso   1.000  C
  N155     1.0000 0.39150  0.59270  0.69830  Biso   1.000  N
  C150     1.0000 0.46860  0.46980  0.59680  Biso   1.000  C
  N156     1.0000 0.48710  0.42630  0.58380  Biso   1.000  N
  C151     1.0000 0.37700  0.48120  0.60960  Biso   1.000  C
  N157     1.0000 0.34460  0.44160  0.60320  Biso   1.000  N
  C152     1.0000 0.43320  0.66610  0.62700  Biso   1.000  C
  N158     1.0000 0.43110  0.72820  0.62990  Biso   1.000  N
  C153     1.0000 0.41380  0.66100  0.61210  Biso   1.000  C
  N159     1.0000 0.40270  0.71830  0.60930  Biso   1.000  N
  C154     1.0000 0.37580  0.57940  0.55970  Biso   1.000  C
  N160     1.0000 0.34490  0.58880  0.52440  Biso   1.000  N
  C155     1.0000 0.38870  0.55880  0.55210  Biso   1.000  C
  N161     1.0000 0.36180  0.55400  0.51670  Biso   1.000  N
  C156     1.0000 0.47770  0.60180  0.58540  Biso   1.000  C
  N162     1.0000 0.49800  0.62470  0.56410  Biso   1.000  N
  Fe27     1.0000 0.50000  0.35434  0.75000  Biso   1.000  Fe
  W19      1.0000 0.08033  0.66227  0.88076  Biso   1.000  W
  W20      1.0000 0.82153  0.83970  0.76491  Biso   1.000  W
  W21      1.0000 0.06135  0.05441  0.87693  Biso   1.000  W
  Fe28     1.0000 0.89308  0.58157  0.76579  Biso   1.000  Fe
  Fe29     1.0000 0.21578  0.87183  0.90913  Biso   1.000  Fe
  Fe30     1.0000 0.87166  0.11144  0.75300  Biso   1.000  Fe
  Fe31     1.0000 0.97238  0.84686  0.93068  Biso   1.000  Fe
  C157     1.0000 0.04740  0.74130  0.82910  Biso   1.000  C
  N163     1.0000 0.02850  0.78100  0.80080  Biso   1.000  N
  C158     1.0000 0.09100  0.62550  0.82260  Biso   1.000  C
  N164     1.0000 0.09550  0.60650  0.79110  Biso   1.000  N
  C159     1.0000 0.00610  0.62610  0.83460  Biso   1.000  C
  N165     1.0000 0.96640  0.60830  0.80890  Biso   1.000  N
  C160     1.0000 0.03420  0.72930  0.90170  Biso   1.000  C
  N166     1.0000 0.01020  0.76830  0.91300  Biso   1.000  N
  C161     1.0000 0.13800  0.74130  0.89150  Biso   1.000  C
  N167     1.0000 0.16840  0.78460  0.89820  Biso   1.000  N
  C162     1.0000 0.14930  0.59800  0.90300  Biso   1.000  C
  N168     1.0000 0.18620  0.56620  0.91610  Biso   1.000  N
  C163     1.0000 0.11890  0.67290  0.95380  Biso   1.000  C
  N169     1.0000 0.14140  0.67850  0.99160  Biso   1.000  N
  C164     1.0000 0.05890  0.57060  0.90610  Biso   1.000  C
  N170     1.0000 0.04690  0.52220  0.91910  Biso   1.000  N
  C165     1.0000 0.89190  0.84370  0.75670  Biso   1.000  C
  N171     1.0000 0.93020  0.84900  0.75340  Biso   1.000  N
  C166     1.0000 0.85030  0.73500  0.76700  Biso   1.000  C
  N172     1.0000 0.86580  0.67870  0.76860  Biso   1.000  N
  C167     1.0000 0.84280  0.94930  0.76480  Biso   1.000  C
  N173     1.0000 0.85370  0.00570  0.76180  Biso   1.000  N
  C168     1.0000 0.87900  0.85140  0.83190  Biso   1.000  C
  N174     1.0000 0.91200  0.85380  0.86820  Biso   1.000  N
  C169     1.0000 0.80060  0.86110  0.69450  Biso   1.000  C
  N175     1.0000 0.79170  0.87150  0.65740  Biso   1.000  N
  C170     1.0000 0.76000  0.90460  0.76430  Biso   1.000  C
  N176     1.0000 0.72620  0.93970  0.76340  Biso   1.000  N
  C171     1.0000 0.79610  0.78730  0.81180  Biso   1.000  C
  N177     1.0000 0.77560  0.75030  0.82900  Biso   1.000  N
  N178     1.0000 0.78690  0.76960  0.84180  Biso   1.000  N
  C172     1.0000 0.75480  0.77660  0.72550  Biso   1.000  C
  N179     1.0000 0.72010  0.74170  0.70550  Biso   1.000  N
  C173     1.0000 0.03460  0.97400  0.82520  Biso   1.000  C
  N180     1.0000 0.02240  0.93130  0.79800  Biso   1.000  N
  C174     1.0000 0.98820  0.08720  0.82690  Biso   1.000  C
  N181     1.0000 0.94810  0.10220  0.80030  Biso   1.000  N
  C175     1.0000 0.09300  0.08110  0.82880  Biso   1.000  C
  N182     1.0000 0.10850  0.09270  0.80170  Biso   1.000  N
  C176     1.0000 0.03140  0.96980  0.90320  Biso   1.000  C
  N183     1.0000 0.01290  0.92630  0.91620  Biso   1.000  N
  C177     1.0000 0.12300  0.98120  0.89040  Biso   1.000  C
  N184     1.0000 0.15540  0.94160  0.89680  Biso   1.000  N
  C178     1.0000 0.06680  0.16610  0.87300  Biso   1.000  C
  N185     1.0000 0.06890  0.22820  0.87010  Biso   1.000  N
  C179     1.0000 0.08620  0.16100  0.88790  Biso   1.000  C
  N186     1.0000 0.09730  0.21830  0.89070  Biso   1.000  N
  C180     1.0000 0.12420  0.07940  0.94030  Biso   1.000  C
  N187     1.0000 0.15510  0.08880  0.97560  Biso   1.000  N
  C181     1.0000 0.11130  0.05880  0.94790  Biso   1.000  C
  N188     1.0000 0.13820  0.05400  0.98330  Biso   1.000  N
  C182     1.0000 0.02230  0.10180  0.91460  Biso   1.000  C
  N189     1.0000 0.00200  0.12470  0.93590  Biso   1.000  N
  W22      1.0000 0.91967  0.66227  0.61924  Biso   1.000  W
  W23      1.0000 0.17847  0.83970  0.73509  Biso   1.000  W
  W24      1.0000 0.93865  0.05441  0.62307  Biso   1.000  W
  Fe32     1.0000 0.10692  0.58157  0.73421  Biso   1.000  Fe
  Fe33     1.0000 0.78422  0.87183  0.59087  Biso   1.000  Fe
  Fe34     1.0000 0.12834  0.11144  0.74700  Biso   1.000  Fe
  Fe35     1.0000 0.02762  0.84686  0.56932  Biso   1.000  Fe
  C183     1.0000 0.95260  0.74130  0.67090  Biso   1.000  C
  N190     1.0000 0.97150  0.78100  0.69920  Biso   1.000  N
  C184     1.0000 0.90900  0.62550  0.67740  Biso   1.000  C
  N191     1.0000 0.90450  0.60650  0.70890  Biso   1.000  N
  C185     1.0000 0.99390  0.62610  0.66540  Biso   1.000  C
  N192     1.0000 0.03360  0.60830  0.69110  Biso   1.000  N
  C186     1.0000 0.96580  0.72930  0.59830  Biso   1.000  C
  N193     1.0000 0.98980  0.76830  0.58700  Biso   1.000  N
  C187     1.0000 0.86200  0.74130  0.60850  Biso   1.000  C
  N194     1.0000 0.83160  0.78460  0.60180  Biso   1.000  N
  C188     1.0000 0.85070  0.59800  0.59700  Biso   1.000  C
  N195     1.0000 0.81380  0.56620  0.58390  Biso   1.000  N
  C189     1.0000 0.88110  0.67290  0.54620  Biso   1.000  C
  N196     1.0000 0.85860  0.67850  0.50840  Biso   1.000  N
  C190     1.0000 0.94110  0.57060  0.59390  Biso   1.000  C
  N197     1.0000 0.95310  0.52220  0.58090  Biso   1.000  N
  C191     1.0000 0.10810  0.84370  0.74330  Biso   1.000  C
  N198     1.0000 0.06980  0.84900  0.74660  Biso   1.000  N
  C192     1.0000 0.14970  0.73500  0.73300  Biso   1.000  C
  N199     1.0000 0.13420  0.67870  0.73140  Biso   1.000  N
  C193     1.0000 0.15720  0.94930  0.73520  Biso   1.000  C
  N200     1.0000 0.14630  0.00570  0.73820  Biso   1.000  N
  C194     1.0000 0.12100  0.85140  0.66810  Biso   1.000  C
  N201     1.0000 0.08800  0.85380  0.63180  Biso   1.000  N
  C195     1.0000 0.19940  0.86110  0.80550  Biso   1.000  C
  N202     1.0000 0.20830  0.87150  0.84260  Biso   1.000  N
  C196     1.0000 0.24000  0.90460  0.73570  Biso   1.000  C
  N203     1.0000 0.27380  0.93970  0.73660  Biso   1.000  N
  C197     1.0000 0.20390  0.78730  0.68820  Biso   1.000  C
  N204     1.0000 0.22440  0.75030  0.67100  Biso   1.000  N
  N205     1.0000 0.21310  0.76960  0.65820  Biso   1.000  N
  C198     1.0000 0.24520  0.77660  0.77450  Biso   1.000  C
  N206     1.0000 0.27990  0.74170  0.79450  Biso   1.000  N
  C199     1.0000 0.96540  0.97400  0.67480  Biso   1.000  C
  N207     1.0000 0.97760  0.93130  0.70200  Biso   1.000  N
  C200     1.0000 0.01180  0.08720  0.67310  Biso   1.000  C
  N208     1.0000 0.05190  0.10220  0.69970  Biso   1.000  N
  C201     1.0000 0.90700  0.08110  0.67120  Biso   1.000  C
  N209     1.0000 0.89150  0.09270  0.69830  Biso   1.000  N
  C202     1.0000 0.96860  0.96980  0.59680  Biso   1.000  C
  N210     1.0000 0.98710  0.92630  0.58380  Biso   1.000  N
  C203     1.0000 0.87700  0.98120  0.60960  Biso   1.000  C
  N211     1.0000 0.84460  0.94160  0.60320  Biso   1.000  N
  C204     1.0000 0.93320  0.16610  0.62700  Biso   1.000  C
  N212     1.0000 0.93110  0.22820  0.62990  Biso   1.000  N
  C205     1.0000 0.91380  0.16100  0.61210  Biso   1.000  C
  N213     1.0000 0.90270  0.21830  0.60930  Biso   1.000  N
  C206     1.0000 0.87580  0.07940  0.55970  Biso   1.000  C
  N214     1.0000 0.84490  0.08880  0.52440  Biso   1.000  N
  C207     1.0000 0.88870  0.05880  0.55210  Biso   1.000  C
  N215     1.0000 0.86180  0.05400  0.51670  Biso   1.000  N
  C208     1.0000 0.97770  0.10180  0.58540  Biso   1.000  C
  N216     1.0000 0.99800  0.12470  0.56410  Biso   1.000  N
  Fe36     1.0000 0.00000  0.85434  0.75000  Biso   1.000  Fe
