data_image0
_cell_length_a       15.916
_cell_length_b       18.83
_cell_length_c       19.364
_cell_angle_alpha    105.094
_cell_angle_beta     103.903
_cell_angle_gamma    91.781

_symmetry_space_group_name_H-M    "P 1"
_symmetry_int_tables_number       1

loop_
  _symmetry_equiv_pos_as_xyz
  'x, y, z'

loop_
  _atom_site_label
  _atom_site_occupancy
  _atom_site_fract_x
  _atom_site_fract_y
  _atom_site_fract_z
  _atom_site_thermal_displace_type
  _atom_site_B_iso_or_equiv
  _atom_site_type_symbol
  C1       1.0000 0.44997  0.92026  0.67668  Biso   1.000  C
  C2       1.0000 0.46752  0.99111  0.73463  Biso   1.000  C
  C3       1.0000 0.41625  0.04834  0.75133  Biso   1.000  C
  C4       1.0000 0.46709  0.10304  0.81409  Biso   1.000  C
  C5       1.0000 0.54840  0.07730  0.83377  Biso   1.000  C
  C6       1.0000 0.62698  0.10669  0.89435  Biso   1.000  C
  C7       1.0000 0.64240  0.18079  0.93700  Biso   1.000  C
  H1       1.0000 0.60140  0.21500  0.92770  Biso   1.000  H
  C8       1.0000 0.71841  0.20306  0.99290  Biso   1.000  C
  H2       1.0000 0.73020  0.25310  0.02210  Biso   1.000  H
  C9       1.0000 0.77726  0.15268  0.00635  Biso   1.000  C
  H3       1.0000 0.82980  0.16750  0.04450  Biso   1.000  H
  C10      1.0000 0.75761  0.07926  0.96239  Biso   1.000  C
  C11      1.0000 0.81403  0.02093  0.97207  Biso   1.000  C
  C12      1.0000 0.88450  0.01429  0.02888  Biso   1.000  C
  C13      1.0000 0.91039  0.94216  0.00699  Biso   1.000  C
  C14      1.0000 0.85523  0.90687  0.93783  Biso   1.000  C
  C15      1.0000 0.84464  0.83076  0.89074  Biso   1.000  C
  C16      1.0000 0.32234  0.05001  0.71448  Biso   1.000  C
  H4       1.0000 0.31090  0.02430  0.66110  Biso   1.000  H
  H5       1.0000 0.30980  0.10200  0.71930  Biso   1.000  H
  C17      1.0000 0.26182  0.01327  0.74805  Biso   1.000  C
  H6       1.0000 0.27280  0.96140  0.74220  Biso   1.000  H
  H7       1.0000 0.20120  0.01590  0.72280  Biso   1.000  H
  H8       1.0000 0.27240  0.03890  0.80080  Biso   1.000  H
  C18      1.0000 0.43439  0.17358  0.85126  Biso   1.000  C
  H9       1.0000 0.46470  0.18830  0.90460  Biso   1.000  H
  H10      1.0000 0.37150  0.16400  0.84670  Biso   1.000  H
  C19      1.0000 0.44802  0.23749  0.81885  Biso   1.000  C
  H11      1.0000 0.51040  0.24920  0.82550  Biso   1.000  H
  H12      1.0000 0.42400  0.28100  0.84430  Biso   1.000  H
  H13      1.0000 0.41840  0.22330  0.76590  Biso   1.000  H
  C20      1.0000 0.92101  0.06921  0.10382  Biso   1.000  C
  H14      1.0000 0.93250  0.11860  0.09720  Biso   1.000  H
  H15      1.0000 0.97690  0.05430  0.12850  Biso   1.000  H
  C21      1.0000 0.85788  0.07353  0.15282  Biso   1.000  C
  H16      1.0000 0.80280  0.08890  0.12870  Biso   1.000  H
  H17      1.0000 0.88310  0.10960  0.20080  Biso   1.000  H
  H18      1.0000 0.84730  0.02490  0.16030  Biso   1.000  H
  C22      1.0000 0.98060  0.90797  0.05110  Biso   1.000  C
  H19      1.0000 0.02580  0.94740  0.08460  Biso   1.000  H
  H20      1.0000 0.00830  0.87400  0.01690  Biso   1.000  H
  C23      1.0000 0.94508  0.86527  0.09694  Biso   1.000  C
  H21      1.0000 0.92050  0.89930  0.13280  Biso   1.000  H
  H22      1.0000 0.99230  0.84250  0.12330  Biso   1.000  H
  H23      1.0000 0.89970  0.82670  0.06410  Biso   1.000  H
  C24      1.0000 0.21323  0.76721  0.43342  Biso   1.000  C
  C25      1.0000 0.13583  0.79909  0.40153  Biso   1.000  C
  C26      1.0000 0.10072  0.86509  0.42684  Biso   1.000  C
  C27      1.0000 0.02093  0.86390  0.37451  Biso   1.000  C
  C28      1.0000 0.00951  0.79691  0.31899  Biso   1.000  C
  C29      1.0000 0.94154  0.76074  0.25150  Biso   1.000  C
  C30      1.0000 0.86981  0.79378  0.22088  Biso   1.000  C
  H24      1.0000 0.86080  0.84290  0.24410  Biso   1.000  H
  C31      1.0000 0.81223  0.75297  0.15576  Biso   1.000  C
  H25      1.0000 0.76300  0.77420  0.13380  Biso   1.000  H
  C32      1.0000 0.82623  0.68128  0.12246  Biso   1.000  C
  H26      1.0000 0.78770  0.65330  0.07720  Biso   1.000  H
  C33      1.0000 0.89833  0.65112  0.15693  Biso   1.000  C
  C34      1.0000 0.91949  0.57501  0.12983  Biso   1.000  C
  C35      1.0000 0.87328  0.51052  0.07829  Biso   1.000  C
  C36      1.0000 0.92801  0.45276  0.08143  Biso   1.000  C
  C37      1.0000 0.00520  0.48376  0.13458  Biso   1.000  C
  C38      1.0000 0.08158  0.45052  0.16626  Biso   1.000  C
  C39      1.0000 0.13894  0.92472  0.49761  Biso   1.000  C
  H27      1.0000 0.09090  0.94760  0.51660  Biso   1.000  H
  H28      1.0000 0.17220  0.90180  0.53490  Biso   1.000  H
  C40      1.0000 0.19780  0.98432  0.48962  Biso   1.000  C
  H29      1.0000 0.24750  0.96270  0.47350  Biso   1.000  H
  H30      1.0000 0.21880  0.02170  0.53740  Biso   1.000  H
  H31      1.0000 0.16560  0.00740  0.45280  Biso   1.000  H
  C41      1.0000 0.96265  0.92542  0.37924  Biso   1.000  C
  H32      1.0000 0.96930  0.95170  0.43200  Biso   1.000  H
  H33      1.0000 0.90140  0.90390  0.35790  Biso   1.000  H
  C42      1.0000 0.98246  0.98084  0.33872  Biso   1.000  C
  H34      1.0000 0.04380  0.00070  0.35810  Biso   1.000  H
  H35      1.0000 0.94550  0.02130  0.34640  Biso   1.000  H
  H36      1.0000 0.97080  0.95610  0.28570  Biso   1.000  H
  C43      1.0000 0.78344  0.50244  0.02798  Biso   1.000  C
  H37      1.0000 0.74820  0.53820  0.05260  Biso   1.000  H
  H38      1.0000 0.75560  0.45210  0.01970  Biso   1.000  H
  C44      1.0000 0.78307  0.51527  0.95295  Biso   1.000  C
  H39      1.0000 0.80920  0.56540  0.96060  Biso   1.000  H
  H40      1.0000 0.72300  0.50930  0.92260  Biso   1.000  H
  H41      1.0000 0.81670  0.47930  0.92770  Biso   1.000  H
  C45      1.0000 0.90853  0.37373  0.03474  Biso   1.000  C
  H42      1.0000 0.84500  0.36310  0.01250  Biso   1.000  H
  H43      1.0000 0.92610  0.34060  0.06680  Biso   1.000  H
  C46      1.0000 0.95579  0.35721  0.97295  Biso   1.000  C
  H44      1.0000 0.93810  0.38940  0.94070  Biso   1.000  H
  H45      1.0000 0.94070  0.30540  0.94390  Biso   1.000  H
  H46      1.0000 0.01880  0.36630  0.99480  Biso   1.000  H
  C47      1.0000 0.47357  0.74209  0.45457  Biso   1.000  C
  C48      1.0000 0.54838  0.74258  0.42309  Biso   1.000  C
  C49      1.0000 0.61838  0.79484  0.43617  Biso   1.000  C
  C50      1.0000 0.67201  0.76230  0.38993  Biso   1.000  C
  C51      1.0000 0.63285  0.69069  0.35018  Biso   1.000  C
  C52      1.0000 0.65486  0.63003  0.29444  Biso   1.000  C
  C53      1.0000 0.73785  0.62529  0.28207  Biso   1.000  C
  H47      1.0000 0.78390  0.66270  0.30950  Biso   1.000  H
  C54      1.0000 0.75131  0.56469  0.22880  Biso   1.000  C
  H48      1.0000 0.80710  0.56020  0.21930  Biso   1.000  H
  C55      1.0000 0.68325  0.51074  0.18939  Biso   1.000  C
  H49      1.0000 0.69150  0.46910  0.15250  Biso   1.000  H
  C56      1.0000 0.60229  0.51875  0.20499  Biso   1.000  C
  C57      1.0000 0.32455  0.38440  0.18225  Biso   1.000  C
  C58      1.0000 0.63039  0.87290  0.48561  Biso   1.000  C
  H50      1.0000 0.69240  0.89230  0.49860  Biso   1.000  H
  H51      1.0000 0.61460  0.87280  0.53200  Biso   1.000  H
  C59      1.0000 0.57416  0.92387  0.44792  Biso   1.000  C
  H52      1.0000 0.58870  0.92320  0.40140  Biso   1.000  H
  H53      1.0000 0.58540  0.97440  0.48070  Biso   1.000  H
  H54      1.0000 0.51260  0.90650  0.43770  Biso   1.000  H
  C60      1.0000 0.75555  0.79922  0.38618  Biso   1.000  C
  H55      1.0000 0.75090  0.85300  0.39490  Biso   1.000  H
  H56      1.0000 0.76390  0.77970  0.33590  Biso   1.000  H
  C61      1.0000 0.83480  0.78687  0.44287  Biso   1.000  C
  H57      1.0000 0.82780  0.80760  0.49290  Biso   1.000  H
  H58      1.0000 0.88730  0.81140  0.43780  Biso   1.000  H
  H59      1.0000 0.84010  0.73380  0.43430  Biso   1.000  H
  C62      1.0000 0.31740  0.66919  0.59119  Biso   1.000  C
  C63      1.0000 0.27356  0.64514  0.64100  Biso   1.000  C
  C64      1.0000 0.26986  0.67542  0.71364  Biso   1.000  C
  C65      1.0000 0.20497  0.63161  0.72724  Biso   1.000  C
  C66      1.0000 0.16967  0.57575  0.66164  Biso   1.000  C
  C67      1.0000 0.10092  0.51380  0.63787  Biso   1.000  C
  C68      1.0000 0.04150  0.50409  0.67857  Biso   1.000  C
  H60      1.0000 0.04340  0.53850  0.72470  Biso   1.000  H
  C69      1.0000 0.98004  0.44319  0.64994  Biso   1.000  C
  H61      1.0000 0.93920  0.43560  0.67650  Biso   1.000  H
  C70      1.0000 0.97788  0.39324  0.58262  Biso   1.000  C
  H62      1.0000 0.93580  0.35140  0.56250  Biso   1.000  H
  C71      1.0000 0.03948  0.40622  0.54515  Biso   1.000  C
  C72      1.0000 0.04513  0.35731  0.47378  Biso   1.000  C
  C73      1.0000 0.01595  0.28362  0.43432  Biso   1.000  C
  C74      1.0000 0.04746  0.26768  0.36978  Biso   1.000  C
  C75      1.0000 0.09504  0.33185  0.37189  Biso   1.000  C
  C76      1.0000 0.14029  0.35186  0.32152  Biso   1.000  C
  C77      1.0000 0.32562  0.74162  0.76830  Biso   1.000  C
  H63      1.0000 0.34160  0.77530  0.74080  Biso   1.000  H
  H64      1.0000 0.29080  0.76810  0.80110  Biso   1.000  H
  H65      1.0000 0.32590  0.73580  0.81610  Biso   1.000  H
  H66      1.0000 0.38350  0.73510  0.76290  Biso   1.000  H
  C78      1.0000 0.40280  0.72470  0.81290  Biso   1.000  C
  H67      1.0000 0.38770  0.69420  0.84300  Biso   1.000  H
  H68      1.0000 0.43670  0.77070  0.84540  Biso   1.000  H
  H69      1.0000 0.43750  0.69760  0.78110  Biso   1.000  H
  C79      1.0000 0.31650  0.81370  0.77390  Biso   1.000  C
  H70      1.0000 0.31980  0.82420  0.72760  Biso   1.000  H
  H71      1.0000 0.36320  0.84410  0.81480  Biso   1.000  H
  H72      1.0000 0.26000  0.82510  0.78350  Biso   1.000  H
  C80      1.0000 0.17739  0.64754  0.79854  Biso   1.000  C
  H73      1.0000 0.22810  0.67080  0.84050  Biso   1.000  H
  H74      1.0000 0.15690  0.60050  0.80580  Biso   1.000  H
  C81      1.0000 0.10463  0.69905  0.79817  Biso   1.000  C
  H75      1.0000 0.12470  0.74560  0.79070  Biso   1.000  H
  H76      1.0000 0.08920  0.70920  0.84560  Biso   1.000  H
  H77      1.0000 0.05350  0.67530  0.75800  Biso   1.000  H
  C82      1.0000 0.95768  0.22960  0.45133  Biso   1.000  C
  H78      1.0000 0.96530  0.24150  0.50550  Biso   1.000  H
  H79      1.0000 0.97410  0.17900  0.43420  Biso   1.000  H
  C83      1.0000 0.86251  0.23277  0.41310  Biso   1.000  C
  H80      1.0000 0.84450  0.28140  0.43390  Biso   1.000  H
  H81      1.0000 0.82610  0.19420  0.42100  Biso   1.000  H
  H82      1.0000 0.85590  0.22480  0.35990  Biso   1.000  H
  C84      1.0000 0.03016  0.19563  0.31032  Biso   1.000  C
  H83      1.0000 0.01670  0.20620  0.26160  Biso   1.000  H
  H84      1.0000 0.97790  0.16780  0.31320  Biso   1.000  H
  C85      1.0000 0.10425  0.14671  0.31401  Biso   1.000  C
  H85      1.0000 0.15410  0.17080  0.30440  Biso   1.000  H
  H86      1.0000 0.08520  0.09900  0.27660  Biso   1.000  H
  H87      1.0000 0.12130  0.13870  0.36330  Biso   1.000  H
  N1       1.0000 0.54658  0.00952  0.78550  Biso   1.000  N
  H88      1.0000 0.59000  0.98170  0.78690  Biso   1.000  H
  N2       1.0000 0.68402  0.05737  0.90711  Biso   1.000  N
  N3       1.0000 0.79785  0.95506  0.91803  Biso   1.000  N
  H89      1.0000 0.75650  0.94520  0.87650  Biso   1.000  H
  N4       1.0000 0.07915  0.75892  0.33714  Biso   1.000  N
  H90      1.0000 0.08660  0.71480  0.31110  Biso   1.000  H
  N5       1.0000 0.95403  0.69039  0.22018  Biso   1.000  N
  N6       1.0000 0.99817  0.55725  0.16298  Biso   1.000  N
  H91      1.0000 0.03870  0.58840  0.19760  Biso   1.000  H
  N7       1.0000 0.55795  0.68107  0.37034  Biso   1.000  N
  H92      1.0000 0.52090  0.64100  0.35210  Biso   1.000  H
  N8       1.0000 0.58836  0.57729  0.25667  Biso   1.000  N
  N9       1.0000 0.46493  0.45435  0.20272  Biso   1.000  N
  C86      1.0000 0.52350  0.46604  0.16530  Biso   1.000  C
  C87      1.0000 0.49741  0.42243  0.09470  Biso   1.000  C
  C88      1.0000 0.42040  0.38044  0.08932  Biso   1.000  C
  C89      1.0000 0.39810  0.40000  0.15760  Biso   1.000  C
  C90      1.0000 0.54080  0.42006  0.03333  Biso   1.000  C
  H93      1.0000 0.58000  0.46600  0.04650  Biso   1.000  H
  H94      1.0000 0.49570  0.41880  0.98770  Biso   1.000  H
  C91      1.0000 0.59250  0.35474  0.01750  Biso   1.000  C
  H95      1.0000 0.64290  0.35960  0.05970  Biso   1.000  H
  H96      1.0000 0.61260  0.35310  0.97310  Biso   1.000  H
  H97      1.0000 0.55580  0.30910  0.00940  Biso   1.000  H
  C92      1.0000 0.36590  0.32270  0.02300  Biso   1.000  C
  H98      1.0000 0.38270  0.32690  0.97820  Biso   1.000  H
  H99      1.0000 0.30390  0.33190  0.01680  Biso   1.000  H
  C93      1.0000 0.37650  0.24380  0.03060  Biso   1.000  C
  H100     1.0000 0.43780  0.23470  0.03750  Biso   1.000  H
  H101     1.0000 0.34150  0.20800  0.98570  Biso   1.000  H
  H102     1.0000 0.35690  0.23860  0.07350  Biso   1.000  H
  C94      1.0000 0.53440  0.45110  0.16780  Biso   1.000  C
  C95      1.0000 0.51030  0.39460  0.10160  Biso   1.000  C
  C96      1.0000 0.42600  0.36030  0.09480  Biso   1.000  C
  C97      1.0000 0.40870  0.40430  0.16230  Biso   1.000  C
  C98      1.0000 0.56070  0.36980  0.04270  Biso   1.000  C
  H103     1.0000 0.62290  0.37080  0.06790  Biso   1.000  H
  H104     1.0000 0.53930  0.31800  0.01420  Biso   1.000  H
  C99      1.0000 0.55310  0.41660  0.98970  Biso   1.000  C
  H105     1.0000 0.49200  0.41430  0.96290  Biso   1.000  H
  H106     1.0000 0.58760  0.39810  0.95430  Biso   1.000  H
  H107     1.0000 0.57470  0.46800  0.01730  Biso   1.000  H
  C100     1.0000 0.37630  0.29640  0.03080  Biso   1.000  C
  H108     1.0000 0.39640  0.29620  0.98620  Biso   1.000  H
  H109     1.0000 0.31360  0.30350  0.02000  Biso   1.000  H
  C101     1.0000 0.38890  0.22130  0.04780  Biso   1.000  C
  H110     1.0000 0.45100  0.21430  0.05900  Biso   1.000  H
  H111     1.0000 0.35730  0.18160  0.00460  Biso   1.000  H
  H112     1.0000 0.36640  0.22040  0.09040  Biso   1.000  H
  N10      1.0000 0.21316  0.58479  0.61124  Biso   1.000  N
  H113     1.0000 0.20370  0.55580  0.56590  Biso   1.000  H
  N11      1.0000 0.09880  0.46566  0.57218  Biso   1.000  N
  N12      1.0000 0.09272  0.38463  0.43501  Biso   1.000  N
  H114     1.0000 0.11840  0.42990  0.44860  Biso   1.000  H
  O1       1.0000 0.37617  0.90572  0.62951  Biso   1.000  O
  O2       1.0000 0.50719  0.87607  0.67458  Biso   1.000  O
  O3       1.0000 0.78147  0.80992  0.83412  Biso   1.000  O
  O4       1.0000 0.89874  0.78588  0.90945  Biso   1.000  O
  O5       1.0000 0.27064  0.80792  0.48704  Biso   1.000  O
  O6       1.0000 0.21603  0.69841  0.40398  Biso   1.000  O
  O7       1.0000 0.14234  0.49472  0.21578  Biso   1.000  O
  O8       1.0000 0.08156  0.38134  0.14401  Biso   1.000  O
  O9       1.0000 0.46964  0.79540  0.50858  Biso   1.000  O
  O10      1.0000 0.41879  0.68569  0.42506  Biso   1.000  O
  O11      1.0000 0.32454  0.42001  0.24815  Biso   1.000  O
  O12      1.0000 0.26427  0.33696  0.13937  Biso   1.000  O
  O13      1.0000 0.36300  0.73103  0.61328  Biso   1.000  O
  O14      1.0000 0.30414  0.62465  0.52680  Biso   1.000  O
  O15      1.0000 0.17342  0.41868  0.34089  Biso   1.000  O
  O16      1.0000 0.14471  0.30311  0.26407  Biso   1.000  O
  O17      1.0000 0.30857  0.54808  0.36370  Biso   1.000  O
  Zn1      1.0000 0.37966  0.80786  0.56330  Biso   1.000  Zn
  Zn2      1.0000 0.31103  0.64187  0.43366  Biso   1.000  Zn
  Zn3      1.0000 0.23388  0.46852  0.28866  Biso   1.000  Zn
  Zn4      1.0000 0.15980  0.30563  0.16631  Biso   1.000  Zn
  H115     1.0000 0.36090  0.53780  0.36780  Biso   1.000  H
  H116     1.0000 0.46700  0.47540  0.24680  Biso   1.000  H
  C102     1.0000 0.55003  0.07974  0.32332  Biso   1.000  C
  C103     1.0000 0.53248  0.00889  0.26537  Biso   1.000  C
  C104     1.0000 0.58375  0.95166  0.24867  Biso   1.000  C
  C105     1.0000 0.53291  0.89696  0.18591  Biso   1.000  C
  C106     1.0000 0.45160  0.92270  0.16623  Biso   1.000  C
  C107     1.0000 0.37302  0.89331  0.10565  Biso   1.000  C
  C108     1.0000 0.35760  0.81921  0.06300  Biso   1.000  C
  H117     1.0000 0.39860  0.78500  0.07230  Biso   1.000  H
  C109     1.0000 0.28159  0.79694  0.00710  Biso   1.000  C
  H118     1.0000 0.26980  0.74690  0.97790  Biso   1.000  H
  C110     1.0000 0.22274  0.84732  0.99365  Biso   1.000  C
  H119     1.0000 0.17020  0.83250  0.95550  Biso   1.000  H
  C111     1.0000 0.24239  0.92074  0.03761  Biso   1.000  C
  C112     1.0000 0.18597  0.97907  0.02793  Biso   1.000  C
  C113     1.0000 0.11550  0.98571  0.97112  Biso   1.000  C
  C114     1.0000 0.08961  0.05784  0.99301  Biso   1.000  C
  C115     1.0000 0.14477  0.09313  0.06217  Biso   1.000  C
  C116     1.0000 0.15536  0.16924  0.10926  Biso   1.000  C
  C117     1.0000 0.67766  0.94999  0.28552  Biso   1.000  C
  H120     1.0000 0.68910  0.97570  0.33890  Biso   1.000  H
  H121     1.0000 0.69020  0.89800  0.28070  Biso   1.000  H
  C118     1.0000 0.73818  0.98673  0.25195  Biso   1.000  C
  H122     1.0000 0.72720  0.03860  0.25780  Biso   1.000  H
  H123     1.0000 0.79880  0.98410  0.27720  Biso   1.000  H
  H124     1.0000 0.72760  0.96110  0.19920  Biso   1.000  H
  C119     1.0000 0.56561  0.82642  0.14874  Biso   1.000  C
  H125     1.0000 0.53530  0.81170  0.09540  Biso   1.000  H
  H126     1.0000 0.62850  0.83600  0.15330  Biso   1.000  H
  C120     1.0000 0.55198  0.76251  0.18115  Biso   1.000  C
  H127     1.0000 0.48960  0.75080  0.17450  Biso   1.000  H
  H128     1.0000 0.57600  0.71900  0.15570  Biso   1.000  H
  H129     1.0000 0.58160  0.77670  0.23410  Biso   1.000  H
  C121     1.0000 0.07899  0.93079  0.89618  Biso   1.000  C
  H130     1.0000 0.06750  0.88140  0.90280  Biso   1.000  H
  H131     1.0000 0.02310  0.94570  0.87150  Biso   1.000  H
  C122     1.0000 0.14212  0.92647  0.84718  Biso   1.000  C
  H132     1.0000 0.19720  0.91110  0.87130  Biso   1.000  H
  H133     1.0000 0.11690  0.89040  0.79920  Biso   1.000  H
  H134     1.0000 0.15270  0.97510  0.83970  Biso   1.000  H
  C123     1.0000 0.01940  0.09203  0.94890  Biso   1.000  C
  H135     1.0000 0.97420  0.05260  0.91540  Biso   1.000  H
  H136     1.0000 0.99170  0.12600  0.98310  Biso   1.000  H
  C124     1.0000 0.05492  0.13473  0.90306  Biso   1.000  C
  H137     1.0000 0.07950  0.10070  0.86720  Biso   1.000  H
  H138     1.0000 0.00770  0.15750  0.87670  Biso   1.000  H
  H139     1.0000 0.10030  0.17330  0.93590  Biso   1.000  H
  C125     1.0000 0.78677  0.23279  0.56658  Biso   1.000  C
  C126     1.0000 0.86417  0.20091  0.59847  Biso   1.000  C
  C127     1.0000 0.89928  0.13491  0.57316  Biso   1.000  C
  C128     1.0000 0.97907  0.13610  0.62549  Biso   1.000  C
  C129     1.0000 0.99049  0.20309  0.68101  Biso   1.000  C
  C130     1.0000 0.05846  0.23926  0.74850  Biso   1.000  C
  C131     1.0000 0.13019  0.20622  0.77912  Biso   1.000  C
  H140     1.0000 0.13920  0.15710  0.75590  Biso   1.000  H
  C132     1.0000 0.18777  0.24703  0.84424  Biso   1.000  C
  H141     1.0000 0.23700  0.22580  0.86620  Biso   1.000  H
  C133     1.0000 0.17377  0.31872  0.87754  Biso   1.000  C
  H142     1.0000 0.21230  0.34670  0.92280  Biso   1.000  H
  C134     1.0000 0.10167  0.34888  0.84307  Biso   1.000  C
  C135     1.0000 0.08051  0.42499  0.87017  Biso   1.000  C
  C136     1.0000 0.12672  0.48948  0.92171  Biso   1.000  C
  C137     1.0000 0.07199  0.54724  0.91857  Biso   1.000  C
  C138     1.0000 0.99480  0.51624  0.86542  Biso   1.000  C
  C139     1.0000 0.91842  0.54948  0.83374  Biso   1.000  C
  C140     1.0000 0.86106  0.07528  0.50239  Biso   1.000  C
  H143     1.0000 0.90910  0.05240  0.48340  Biso   1.000  H
  H144     1.0000 0.82780  0.09820  0.46510  Biso   1.000  H
  C141     1.0000 0.80220  0.01568  0.51038  Biso   1.000  C
  H145     1.0000 0.75250  0.03730  0.52650  Biso   1.000  H
  H146     1.0000 0.78120  0.97830  0.46260  Biso   1.000  H
  H147     1.0000 0.83440  0.99260  0.54720  Biso   1.000  H
  C142     1.0000 0.03735  0.07458  0.62076  Biso   1.000  C
  H148     1.0000 0.03070  0.04830  0.56800  Biso   1.000  H
  H149     1.0000 0.09860  0.09610  0.64210  Biso   1.000  H
  C143     1.0000 0.01754  0.01916  0.66128  Biso   1.000  C
  H150     1.0000 0.95620  0.99930  0.64190  Biso   1.000  H
  H151     1.0000 0.05450  0.97870  0.65360  Biso   1.000  H
  H152     1.0000 0.02920  0.04390  0.71430  Biso   1.000  H
  C144     1.0000 0.21656  0.49756  0.97202  Biso   1.000  C
  H153     1.0000 0.25180  0.46180  0.94740  Biso   1.000  H
  H154     1.0000 0.24440  0.54790  0.98030  Biso   1.000  H
  C145     1.0000 0.21693  0.48473  0.04705  Biso   1.000  C
  H155     1.0000 0.19080  0.43460  0.03940  Biso   1.000  H
  H156     1.0000 0.27700  0.49070  0.07740  Biso   1.000  H
  H157     1.0000 0.18330  0.52070  0.07230  Biso   1.000  H
  C146     1.0000 0.09147  0.62627  0.96526  Biso   1.000  C
  H158     1.0000 0.15500  0.63690  0.98750  Biso   1.000  H
  H159     1.0000 0.07390  0.65940  0.93320  Biso   1.000  H
  C147     1.0000 0.04421  0.64279  0.02705  Biso   1.000  C
  H160     1.0000 0.06190  0.61060  0.05930  Biso   1.000  H
  H161     1.0000 0.05930  0.69460  0.05610  Biso   1.000  H
  H162     1.0000 0.98120  0.63370  0.00520  Biso   1.000  H
  C148     1.0000 0.52643  0.25791  0.54543  Biso   1.000  C
  C149     1.0000 0.45162  0.25742  0.57691  Biso   1.000  C
  C150     1.0000 0.38162  0.20516  0.56383  Biso   1.000  C
  C151     1.0000 0.32799  0.23770  0.61007  Biso   1.000  C
  C152     1.0000 0.36715  0.30931  0.64982  Biso   1.000  C
  C153     1.0000 0.34514  0.36997  0.70556  Biso   1.000  C
  C154     1.0000 0.26215  0.37471  0.71793  Biso   1.000  C
  H163     1.0000 0.21610  0.33730  0.69050  Biso   1.000  H
  C155     1.0000 0.24869  0.43531  0.77120  Biso   1.000  C
  H164     1.0000 0.19290  0.43980  0.78070  Biso   1.000  H
  C156     1.0000 0.31675  0.48926  0.81061  Biso   1.000  C
  H165     1.0000 0.30850  0.53090  0.84750  Biso   1.000  H
  C157     1.0000 0.39771  0.48125  0.79501  Biso   1.000  C
  C158     1.0000 0.67545  0.61560  0.81775  Biso   1.000  C
  C159     1.0000 0.36961  0.12710  0.51439  Biso   1.000  C
  H166     1.0000 0.30760  0.10770  0.50140  Biso   1.000  H
  H167     1.0000 0.38540  0.12720  0.46800  Biso   1.000  H
  C160     1.0000 0.42584  0.07613  0.55208  Biso   1.000  C
  H168     1.0000 0.41130  0.07680  0.59860  Biso   1.000  H
  H169     1.0000 0.41460  0.02560  0.51930  Biso   1.000  H
  H170     1.0000 0.48740  0.09350  0.56230  Biso   1.000  H
  C161     1.0000 0.24445  0.20078  0.61382  Biso   1.000  C
  H171     1.0000 0.24910  0.14700  0.60510  Biso   1.000  H
  H172     1.0000 0.23610  0.22030  0.66410  Biso   1.000  H
  C162     1.0000 0.16520  0.21313  0.55713  Biso   1.000  C
  H173     1.0000 0.17220  0.19240  0.50710  Biso   1.000  H
  H174     1.0000 0.11270  0.18860  0.56220  Biso   1.000  H
  H175     1.0000 0.15990  0.26620  0.56570  Biso   1.000  H
  C163     1.0000 0.68260  0.33081  0.40881  Biso   1.000  C
  C164     1.0000 0.72644  0.35486  0.35900  Biso   1.000  C
  C165     1.0000 0.73014  0.32458  0.28636  Biso   1.000  C
  C166     1.0000 0.79503  0.36839  0.27276  Biso   1.000  C
  C167     1.0000 0.83033  0.42425  0.33836  Biso   1.000  C
  C168     1.0000 0.89908  0.48620  0.36213  Biso   1.000  C
  C169     1.0000 0.95850  0.49591  0.32143  Biso   1.000  C
  H176     1.0000 0.95660  0.46150  0.27530  Biso   1.000  H
  C170     1.0000 0.01996  0.55681  0.35006  Biso   1.000  C
  H177     1.0000 0.06080  0.56440  0.32350  Biso   1.000  H
  C171     1.0000 0.02212  0.60676  0.41738  Biso   1.000  C
  H178     1.0000 0.06420  0.64860  0.43750  Biso   1.000  H
  C172     1.0000 0.96052  0.59378  0.45485  Biso   1.000  C
  C173     1.0000 0.95487  0.64269  0.52622  Biso   1.000  C
  C174     1.0000 0.98405  0.71638  0.56568  Biso   1.000  C
  C175     1.0000 0.95254  0.73232  0.63022  Biso   1.000  C
  C176     1.0000 0.90496  0.66815  0.62811  Biso   1.000  C
  C177     1.0000 0.85971  0.64814  0.67848  Biso   1.000  C
  C178     1.0000 0.67438  0.25838  0.23170  Biso   1.000  C
  H179     1.0000 0.65840  0.22470  0.25920  Biso   1.000  H
  H180     1.0000 0.70920  0.23190  0.19890  Biso   1.000  H
  H181     1.0000 0.67410  0.26420  0.18390  Biso   1.000  H
  H182     1.0000 0.61650  0.26490  0.23710  Biso   1.000  H
  C179     1.0000 0.59720  0.27530  0.18710  Biso   1.000  C
  H183     1.0000 0.61230  0.30580  0.15700  Biso   1.000  H
  H184     1.0000 0.56330  0.22930  0.15460  Biso   1.000  H
  H185     1.0000 0.56250  0.30240  0.21890  Biso   1.000  H
  C180     1.0000 0.68350  0.18630  0.22610  Biso   1.000  C
  H186     1.0000 0.68020  0.17580  0.27240  Biso   1.000  H
  H187     1.0000 0.63680  0.15590  0.18520  Biso   1.000  H
  H188     1.0000 0.74000  0.17490  0.21650  Biso   1.000  H
  C181     1.0000 0.82261  0.35246  0.20146  Biso   1.000  C
  H189     1.0000 0.77190  0.32920  0.15950  Biso   1.000  H
  H190     1.0000 0.84310  0.39950  0.19420  Biso   1.000  H
  C182     1.0000 0.89537  0.30095  0.20183  Biso   1.000  C
  H191     1.0000 0.87530  0.25440  0.20930  Biso   1.000  H
  H192     1.0000 0.91080  0.29080  0.15440  Biso   1.000  H
  H193     1.0000 0.94650  0.32470  0.24200  Biso   1.000  H
  C183     1.0000 0.04232  0.77040  0.54867  Biso   1.000  C
  H194     1.0000 0.03470  0.75850  0.49450  Biso   1.000  H
  H195     1.0000 0.02590  0.82100  0.56580  Biso   1.000  H
  C184     1.0000 0.13749  0.76723  0.58690  Biso   1.000  C
  H196     1.0000 0.15550  0.71860  0.56610  Biso   1.000  H
  H197     1.0000 0.17390  0.80580  0.57900  Biso   1.000  H
  H198     1.0000 0.14410  0.77520  0.64010  Biso   1.000  H
  C185     1.0000 0.96984  0.80437  0.68968  Biso   1.000  C
  H199     1.0000 0.98330  0.79380  0.73840  Biso   1.000  H
  H200     1.0000 0.02210  0.83220  0.68680  Biso   1.000  H
  C186     1.0000 0.89575  0.85329  0.68599  Biso   1.000  C
  H201     1.0000 0.84590  0.82920  0.69560  Biso   1.000  H
  H202     1.0000 0.91480  0.90100  0.72340  Biso   1.000  H
  H203     1.0000 0.87870  0.86130  0.63670  Biso   1.000  H
  N13      1.0000 0.45342  0.99048  0.21450  Biso   1.000  N
  H204     1.0000 0.41000  0.01830  0.21310  Biso   1.000  H
  N14      1.0000 0.31598  0.94263  0.09289  Biso   1.000  N
  N15      1.0000 0.20215  0.04494  0.08197  Biso   1.000  N
  H205     1.0000 0.24350  0.05480  0.12350  Biso   1.000  H
  N16      1.0000 0.92085  0.24108  0.66286  Biso   1.000  N
  H206     1.0000 0.91340  0.28520  0.68890  Biso   1.000  H
  N17      1.0000 0.04597  0.30961  0.77982  Biso   1.000  N
  N18      1.0000 0.00183  0.44275  0.83702  Biso   1.000  N
  H207     1.0000 0.96130  0.41160  0.80240  Biso   1.000  H
  N19      1.0000 0.44205  0.31893  0.62966  Biso   1.000  N
  H208     1.0000 0.47910  0.35900  0.64790  Biso   1.000  H
  N20      1.0000 0.41164  0.42271  0.74333  Biso   1.000  N
  N21      1.0000 0.53507  0.54565  0.79728  Biso   1.000  N
  C187     1.0000 0.47650  0.53396  0.83470  Biso   1.000  C
  C188     1.0000 0.50259  0.57757  0.90530  Biso   1.000  C
  C189     1.0000 0.57960  0.61956  0.91068  Biso   1.000  C
  C190     1.0000 0.60190  0.60000  0.84240  Biso   1.000  C
  C191     1.0000 0.45920  0.57994  0.96667  Biso   1.000  C
  H209     1.0000 0.42000  0.53400  0.95350  Biso   1.000  H
  H210     1.0000 0.50430  0.58120  0.01230  Biso   1.000  H
  C192     1.0000 0.40750  0.64526  0.98250  Biso   1.000  C
  H211     1.0000 0.35710  0.64040  0.94030  Biso   1.000  H
  H212     1.0000 0.38740  0.64690  0.02690  Biso   1.000  H
  H213     1.0000 0.44420  0.69090  0.99060  Biso   1.000  H
  C193     1.0000 0.63410  0.67730  0.97700  Biso   1.000  C
  H214     1.0000 0.61730  0.67310  0.02180  Biso   1.000  H
  H215     1.0000 0.69610  0.66810  0.98320  Biso   1.000  H
  C194     1.0000 0.62350  0.75620  0.96940  Biso   1.000  C
  H216     1.0000 0.56220  0.76530  0.96250  Biso   1.000  H
  H217     1.0000 0.65850  0.79200  0.01430  Biso   1.000  H
  H218     1.0000 0.64310  0.76140  0.92650  Biso   1.000  H
  C195     1.0000 0.46560  0.54890  0.83220  Biso   1.000  C
  C196     1.0000 0.48970  0.60540  0.89840  Biso   1.000  C
  C197     1.0000 0.57400  0.63970  0.90520  Biso   1.000  C
  C198     1.0000 0.59130  0.59570  0.83770  Biso   1.000  C
  C199     1.0000 0.43930  0.63020  0.95730  Biso   1.000  C
  H219     1.0000 0.37710  0.62920  0.93210  Biso   1.000  H
  H220     1.0000 0.46070  0.68200  0.98580  Biso   1.000  H
  C200     1.0000 0.44690  0.58340  0.01030  Biso   1.000  C
  H221     1.0000 0.50800  0.58570  0.03710  Biso   1.000  H
  H222     1.0000 0.41240  0.60190  0.04570  Biso   1.000  H
  H223     1.0000 0.42530  0.53200  0.98270  Biso   1.000  H
  C201     1.0000 0.62370  0.70360  0.96920  Biso   1.000  C
  H224     1.0000 0.60360  0.70380  0.01380  Biso   1.000  H
  H225     1.0000 0.68640  0.69650  0.98000  Biso   1.000  H
  C202     1.0000 0.61110  0.77870  0.95220  Biso   1.000  C
  H226     1.0000 0.54900  0.78570  0.94100  Biso   1.000  H
  H227     1.0000 0.64270  0.81840  0.99540  Biso   1.000  H
  H228     1.0000 0.63360  0.77960  0.90960  Biso   1.000  H
  N22      1.0000 0.78684  0.41521  0.38876  Biso   1.000  N
  H229     1.0000 0.79630  0.44420  0.43410  Biso   1.000  H
  N23      1.0000 0.90120  0.53434  0.42782  Biso   1.000  N
  N24      1.0000 0.90728  0.61537  0.56499  Biso   1.000  N
  H230     1.0000 0.88160  0.57010  0.55140  Biso   1.000  H
  O18      1.0000 0.62383  0.09428  0.37049  Biso   1.000  O
  O19      1.0000 0.49281  0.12393  0.32542  Biso   1.000  O
  O20      1.0000 0.21853  0.19008  0.16588  Biso   1.000  O
  O21      1.0000 0.10126  0.21412  0.09055  Biso   1.000  O
  O22      1.0000 0.72936  0.19208  0.51296  Biso   1.000  O
  O23      1.0000 0.78397  0.30159  0.59602  Biso   1.000  O
  O24      1.0000 0.85766  0.50528  0.78422  Biso   1.000  O
  O25      1.0000 0.91844  0.61866  0.85599  Biso   1.000  O
  O26      1.0000 0.53036  0.20460  0.49142  Biso   1.000  O
  O27      1.0000 0.58121  0.31431  0.57494  Biso   1.000  O
  O28      1.0000 0.67546  0.57999  0.75185  Biso   1.000  O
  O29      1.0000 0.73573  0.66304  0.86063  Biso   1.000  O
  O30      1.0000 0.63700  0.26897  0.38672  Biso   1.000  O
  O31      1.0000 0.69586  0.37535  0.47320  Biso   1.000  O
  O32      1.0000 0.82658  0.58132  0.65911  Biso   1.000  O
  O33      1.0000 0.85529  0.69689  0.73593  Biso   1.000  O
  O34      1.0000 0.69143  0.45192  0.63630  Biso   1.000  O
  Zn5      1.0000 0.62034  0.19214  0.43670  Biso   1.000  Zn
  Zn6      1.0000 0.68897  0.35813  0.56634  Biso   1.000  Zn
  Zn7      1.0000 0.76612  0.53148  0.71134  Biso   1.000  Zn
  Zn8      1.0000 0.84020  0.69437  0.83369  Biso   1.000  Zn
  H231     1.0000 0.63910  0.46220  0.63220  Biso   1.000  H
  H232     1.0000 0.53300  0.52460  0.75320  Biso   1.000  H
