data_image0
_cell_length_a       19.783
_cell_length_b       21.51
_cell_length_c       23.023
_cell_angle_alpha    117.806
_cell_angle_beta     111.824
_cell_angle_gamma    90.022

_symmetry_space_group_name_H-M    "P 1"
_symmetry_int_tables_number       1

loop_
  _symmetry_equiv_pos_as_xyz
  'x, y, z'

loop_
  _atom_site_label
  _atom_site_occupancy
  _atom_site_fract_x
  _atom_site_fract_y
  _atom_site_fract_z
  _atom_site_thermal_displace_type
  _atom_site_B_iso_or_equiv
  _atom_site_type_symbol
  Ir1      1.0000 0.52020  0.42330  0.34542  Biso   1.000  Ir
  Zr1      1.0000 0.99964  0.11476  0.50030  Biso   1.000  Zr
  Zr2      1.0000 0.08117  0.06648  0.63127  Biso   1.000  Zr
  Zr3      1.0000 0.88797  0.01146  0.52454  Biso   1.000  Zr
  P1       1.0000 0.80980  0.22980  0.96200  Biso   1.000  P
  Ir2      1.0000 0.87630  0.20100  0.90050  Biso   1.000  Ir
  P2       1.0000 0.39830  0.40550  0.31240  Biso   1.000  P
  O1       1.0000 0.98300  0.98400  0.58460  Biso   1.000  O
  O2       1.0000 0.09890  0.08830  0.55660  Biso   1.000  O
  O3       1.0000 0.91120  0.17690  0.52230  Biso   1.000  O
  O4       1.0000 0.06400  0.22050  0.60150  Biso   1.000  O
  O5       1.0000 0.77410  0.96890  0.42950  Biso   1.000  O
  O6       1.0000 0.11730  0.19360  0.68450  Biso   1.000  O
  O7       1.0000 0.08320  0.15710  0.48040  Biso   1.000  O
  O8       1.0000 0.98550  0.09830  0.58420  Biso   1.000  O
  O9       1.0000 0.84110  0.91970  0.53340  Biso   1.000  O
  O10      1.0000 0.11820  0.99010  0.68180  Biso   1.000  O
  O11      1.0000 0.10350  0.96670  0.55720  Biso   1.000  O
  O12      1.0000 0.93830  0.11610  0.39740  Biso   1.000  O
  O13      1.0000 0.83770  0.11210  0.53620  Biso   1.000  O
  O14      1.0000 0.20960  0.07840  0.66530  Biso   1.000  O
  C1       1.0000 0.09900  0.23400  0.66400  Biso   1.000  C
  C2       1.0000 0.71400  0.26900  0.58800  Biso   1.000  C
  C3       1.0000 0.80100  0.34100  0.58600  Biso   1.000  C
  C4       1.0000 0.70870  0.20980  0.89920  Biso   1.000  C
  C5       1.0000 0.65570  0.23610  0.92530  Biso   1.000  C
  C6       1.0000 0.58050  0.20580  0.88100  Biso   1.000  C
  C7       1.0000 0.55820  0.14910  0.81060  Biso   1.000  C
  C8       1.0000 0.61120  0.12280  0.78460  Biso   1.000  C
  C9       1.0000 0.68640  0.15310  0.82880  Biso   1.000  C
  C10      1.0000 0.88400  0.08720  0.27830  Biso   1.000  C
  C11      1.0000 0.83870  0.03710  0.20650  Biso   1.000  C
  C12      1.0000 0.82320  0.05560  0.15320  Biso   1.000  C
  C13      1.0000 0.85310  0.12420  0.17180  Biso   1.000  C
  C14      1.0000 0.89830  0.17430  0.24350  Biso   1.000  C
  C15      1.0000 0.91380  0.15580  0.29680  Biso   1.000  C
  C16      1.0000 0.81400  0.21780  0.55510  Biso   1.000  C
  C17      1.0000 0.35500  0.34670  0.32980  Biso   1.000  C
  C18      1.0000 0.40460  0.33000  0.37930  Biso   1.000  C
  C19      1.0000 0.37700  0.29390  0.40550  Biso   1.000  C
  C20      1.0000 0.30100  0.27450  0.38200  Biso   1.000  C
  C21      1.0000 0.25180  0.29100  0.33300  Biso   1.000  C
  C22      1.0000 0.27900  0.32700  0.30650  Biso   1.000  C
  C23      1.0000 0.24730  0.06450  0.63300  Biso   1.000  C
  C24      1.0000 0.20190  0.21440  0.98360  Biso   1.000  C
  C25      1.0000 0.19960  0.22690  0.92890  Biso   1.000  C
  C26      1.0000 0.14680  0.18250  0.85830  Biso   1.000  C
  C27      1.0000 0.09640  0.12570  0.84240  Biso   1.000  C
  C28      1.0000 0.09870  0.11330  0.89710  Biso   1.000  C
  C29      1.0000 0.15200  0.15760  0.96770  Biso   1.000  C
  C30      1.0000 0.76100  0.21490  0.56750  Biso   1.000  C
  C31      1.0000 0.82380  0.19800  0.01900  Biso   1.000  C
  C32      1.0000 0.83490  0.12900  0.00020  Biso   1.000  C
  C33      1.0000 0.84960  0.10590  0.05000  Biso   1.000  C
  C34      1.0000 0.85320  0.15200  0.11900  Biso   1.000  C
  C35      1.0000 0.84210  0.22200  0.13710  Biso   1.000  C
  C36      1.0000 0.82740  0.24460  0.08700  Biso   1.000  C
  C37      1.0000 0.32420  0.09080  0.67600  Biso   1.000  C
  C38      1.0000 0.37730  0.07470  0.64810  Biso   1.000  C
  C39      1.0000 0.45270  0.09680  0.69470  Biso   1.000  C
  C40      1.0000 0.47490  0.13500  0.76910  Biso   1.000  C
  C41      1.0000 0.42170  0.15110  0.79700  Biso   1.000  C
  C42      1.0000 0.34640  0.12900  0.75050  Biso   1.000  C
  C43      1.0000 0.12970  0.13680  0.46260  Biso   1.000  C
  C44      1.0000 0.14410  0.45030  0.82740  Biso   1.000  C
  C45      1.0000 0.17510  0.39880  0.84270  Biso   1.000  C
  C46      1.0000 0.16030  0.32840  0.78700  Biso   1.000  C
  C47      1.0000 0.11440  0.30940  0.71610  Biso   1.000  C
  C48      1.0000 0.08330  0.36090  0.70090  Biso   1.000  C
  C49      1.0000 0.09820  0.43140  0.75650  Biso   1.000  C
  C50      1.0000 0.74400  0.33600  0.59700  Biso   1.000  C
  C51      1.0000 0.18840  0.16160  0.44810  Biso   1.000  C
  C52      1.0000 0.24790  0.14060  0.43070  Biso   1.000  C
  C53      1.0000 0.28470  0.18100  0.41480  Biso   1.000  C
  C54      1.0000 0.26200  0.24300  0.41650  Biso   1.000  C
  C55      1.0000 0.20300  0.26420  0.43400  Biso   1.000  C
  C56      1.0000 0.16580  0.22330  0.44980  Biso   1.000  C
  C57      1.0000 0.35200  0.35340  0.21100  Biso   1.000  C
  C58      1.0000 0.37890  0.33360  0.15900  Biso   1.000  C
  C59      1.0000 0.33100  0.29350  0.08570  Biso   1.000  C
  C60      1.0000 0.25500  0.27310  0.06520  Biso   1.000  C
  C61      1.0000 0.22780  0.29300  0.11800  Biso   1.000  C
  C62      1.0000 0.27600  0.33300  0.19050  Biso   1.000  C
  C63      1.0000 0.86480  0.16460  0.53810  Biso   1.000  C
  C64      1.0000 0.69640  0.39270  0.60590  Biso   1.000  C
  C65      1.0000 0.61990  0.38610  0.58420  Biso   1.000  C
  C66      1.0000 0.59130  0.44490  0.61800  Biso   1.000  C
  C67      1.0000 0.63900  0.51030  0.67350  Biso   1.000  C
  C68      1.0000 0.71580  0.51690  0.69510  Biso   1.000  C
  C69      1.0000 0.74440  0.45810  0.66140  Biso   1.000  C
  C70      1.0000 0.15010  0.53080  0.87910  Biso   1.000  C
  C71      1.0000 0.11450  0.57360  0.85230  Biso   1.000  C
  C72      1.0000 0.12230  0.64620  0.89900  Biso   1.000  C
  C73      1.0000 0.16560  0.67590  0.97310  Biso   1.000  C
  C74      1.0000 0.20110  0.63310  0.99990  Biso   1.000  C
  C75      1.0000 0.19340  0.56050  0.95290  Biso   1.000  C
  C76      1.0000 0.84800  0.27500  0.55700  Biso   1.000  C
  C77      1.0000 0.09800  0.92500  0.66200  Biso   1.000  C
  Ir3      1.0000 0.47980  0.57670  0.65458  Biso   1.000  Ir
  Zr4      1.0000 0.00036  0.88524  0.49970  Biso   1.000  Zr
  Zr5      1.0000 0.91883  0.93352  0.36873  Biso   1.000  Zr
  Zr6      1.0000 0.11203  0.98854  0.47546  Biso   1.000  Zr
  P3       1.0000 0.19020  0.77020  0.03800  Biso   1.000  P
  Ir4      1.0000 0.12370  0.79900  0.09950  Biso   1.000  Ir
  P4       1.0000 0.60170  0.59450  0.68760  Biso   1.000  P
  O15      1.0000 0.01700  0.01600  0.41540  Biso   1.000  O
  O16      1.0000 0.90110  0.91170  0.44340  Biso   1.000  O
  O17      1.0000 0.08880  0.82310  0.47770  Biso   1.000  O
  O18      1.0000 0.93600  0.77950  0.39850  Biso   1.000  O
  O19      1.0000 0.22590  0.03110  0.57050  Biso   1.000  O
  O20      1.0000 0.88270  0.80640  0.31550  Biso   1.000  O
  O21      1.0000 0.91680  0.84290  0.51960  Biso   1.000  O
  O22      1.0000 0.01450  0.90170  0.41580  Biso   1.000  O
  O23      1.0000 0.15890  0.08030  0.46660  Biso   1.000  O
  O24      1.0000 0.88180  0.00990  0.31820  Biso   1.000  O
  O25      1.0000 0.89650  0.03330  0.44280  Biso   1.000  O
  O26      1.0000 0.06170  0.88390  0.60260  Biso   1.000  O
  O27      1.0000 0.16230  0.88790  0.46380  Biso   1.000  O
  O28      1.0000 0.79040  0.92160  0.33470  Biso   1.000  O
  C78      1.0000 0.90100  0.76600  0.33600  Biso   1.000  C
  C79      1.0000 0.28600  0.73100  0.41200  Biso   1.000  C
  C80      1.0000 0.19900  0.65900  0.41400  Biso   1.000  C
  C81      1.0000 0.29130  0.79020  0.10080  Biso   1.000  C
  C82      1.0000 0.34430  0.76390  0.07470  Biso   1.000  C
  C83      1.0000 0.41950  0.79420  0.11900  Biso   1.000  C
  C84      1.0000 0.44180  0.85090  0.18940  Biso   1.000  C
  C85      1.0000 0.38880  0.87720  0.21540  Biso   1.000  C
  C86      1.0000 0.31360  0.84690  0.17120  Biso   1.000  C
  C87      1.0000 0.11600  0.91280  0.72170  Biso   1.000  C
  C88      1.0000 0.16130  0.96290  0.79350  Biso   1.000  C
  C89      1.0000 0.17680  0.94440  0.84680  Biso   1.000  C
  C90      1.0000 0.14690  0.87580  0.82820  Biso   1.000  C
  C91      1.0000 0.10170  0.82570  0.75650  Biso   1.000  C
  C92      1.0000 0.08620  0.84420  0.70320  Biso   1.000  C
  C93      1.0000 0.18600  0.78220  0.44490  Biso   1.000  C
  C94      1.0000 0.64500  0.65330  0.67020  Biso   1.000  C
  C95      1.0000 0.59540  0.67000  0.62070  Biso   1.000  C
  C96      1.0000 0.62300  0.70610  0.59450  Biso   1.000  C
  C97      1.0000 0.69900  0.72550  0.61800  Biso   1.000  C
  C98      1.0000 0.74820  0.70900  0.66700  Biso   1.000  C
  C99      1.0000 0.72100  0.67300  0.69350  Biso   1.000  C
  C100     1.0000 0.75270  0.93550  0.36700  Biso   1.000  C
  C101     1.0000 0.79810  0.78560  0.01640  Biso   1.000  C
  C102     1.0000 0.80040  0.77310  0.07110  Biso   1.000  C
  C103     1.0000 0.85320  0.81750  0.14170  Biso   1.000  C
  C104     1.0000 0.90360  0.87430  0.15760  Biso   1.000  C
  C105     1.0000 0.90130  0.88670  0.10290  Biso   1.000  C
  C106     1.0000 0.84800  0.84240  0.03230  Biso   1.000  C
  C107     1.0000 0.23900  0.78510  0.43250  Biso   1.000  C
  C108     1.0000 0.17620  0.80200  0.98100  Biso   1.000  C
  C109     1.0000 0.16510  0.87100  0.99980  Biso   1.000  C
  C110     1.0000 0.15040  0.89410  0.95000  Biso   1.000  C
  C111     1.0000 0.14680  0.84800  0.88100  Biso   1.000  C
  C112     1.0000 0.15790  0.77800  0.86290  Biso   1.000  C
  C113     1.0000 0.17260  0.75540  0.91300  Biso   1.000  C
  C114     1.0000 0.67580  0.90920  0.32400  Biso   1.000  C
  C115     1.0000 0.62270  0.92530  0.35190  Biso   1.000  C
  C116     1.0000 0.54730  0.90320  0.30530  Biso   1.000  C
  C117     1.0000 0.52510  0.86500  0.23090  Biso   1.000  C
  C118     1.0000 0.57830  0.84890  0.20300  Biso   1.000  C
  C119     1.0000 0.65360  0.87100  0.24950  Biso   1.000  C
  C120     1.0000 0.87030  0.86320  0.53740  Biso   1.000  C
  C121     1.0000 0.85590  0.54970  0.17260  Biso   1.000  C
  C122     1.0000 0.82490  0.60120  0.15730  Biso   1.000  C
  C123     1.0000 0.83970  0.67160  0.21300  Biso   1.000  C
  C124     1.0000 0.88560  0.69060  0.28390  Biso   1.000  C
  C125     1.0000 0.91670  0.63910  0.29910  Biso   1.000  C
  C126     1.0000 0.90180  0.56860  0.24350  Biso   1.000  C
  C127     1.0000 0.25600  0.66400  0.40300  Biso   1.000  C
  C128     1.0000 0.81160  0.83840  0.55190  Biso   1.000  C
  C129     1.0000 0.75210  0.85940  0.56930  Biso   1.000  C
  C130     1.0000 0.71530  0.81900  0.58520  Biso   1.000  C
  C131     1.0000 0.73800  0.75700  0.58350  Biso   1.000  C
  C132     1.0000 0.79700  0.73580  0.56600  Biso   1.000  C
  C133     1.0000 0.83420  0.77670  0.55020  Biso   1.000  C
  C134     1.0000 0.64800  0.64660  0.78900  Biso   1.000  C
  C135     1.0000 0.62110  0.66640  0.84100  Biso   1.000  C
  C136     1.0000 0.66900  0.70650  0.91430  Biso   1.000  C
  C137     1.0000 0.74500  0.72690  0.93480  Biso   1.000  C
  C138     1.0000 0.77220  0.70700  0.88200  Biso   1.000  C
  C139     1.0000 0.72400  0.66700  0.80950  Biso   1.000  C
  C140     1.0000 0.13520  0.83540  0.46190  Biso   1.000  C
  C141     1.0000 0.30360  0.60730  0.39410  Biso   1.000  C
  C142     1.0000 0.38010  0.61390  0.41580  Biso   1.000  C
  C143     1.0000 0.40870  0.55510  0.38200  Biso   1.000  C
  C144     1.0000 0.36100  0.48970  0.32650  Biso   1.000  C
  C145     1.0000 0.28420  0.48310  0.30490  Biso   1.000  C
  C146     1.0000 0.25560  0.54190  0.33860  Biso   1.000  C
  C147     1.0000 0.84990  0.46920  0.12090  Biso   1.000  C
  C148     1.0000 0.88550  0.42640  0.14770  Biso   1.000  C
  C149     1.0000 0.87770  0.35380  0.10100  Biso   1.000  C
  C150     1.0000 0.83440  0.32410  0.02690  Biso   1.000  C
  C151     1.0000 0.79890  0.36690  0.00010  Biso   1.000  C
  C152     1.0000 0.80660  0.43950  0.04710  Biso   1.000  C
  C153     1.0000 0.15200  0.72500  0.44300  Biso   1.000  C
  C154     1.0000 0.90200  0.07500  0.33800  Biso   1.000  C
