data_image0
_cell_length_a       28.5785
_cell_length_b       18.7796
_cell_length_c       32.1781
_cell_angle_alpha    90
_cell_angle_beta     114.4
_cell_angle_gamma    90

_symmetry_space_group_name_H-M    "P 1"
_symmetry_int_tables_number       1

loop_
  _symmetry_equiv_pos_as_xyz
  'x, y, z'

loop_
  _atom_site_label
  _atom_site_occupancy
  _atom_site_fract_x
  _atom_site_fract_y
  _atom_site_fract_z
  _atom_site_thermal_displace_type
  _atom_site_B_iso_or_equiv
  _atom_site_type_symbol
  W1       1.0000 0.41964  0.84233  0.11823  Biso   1.000  W
  W2       1.0000 0.67831  0.66418  0.23498  Biso   1.000  W
  W3       1.0000 0.43899  0.44490  0.12322  Biso   1.000  W
  Fe1      1.0000 0.60671  0.92523  0.23431  Biso   1.000  Fe
  Fe2      1.0000 0.28432  0.62946  0.08995  Biso   1.000  Fe
  Fe3      1.0000 0.62914  0.38953  0.24735  Biso   1.000  Fe
  Fe4      1.0000 0.52691  0.65464  0.06832  Biso   1.000  Fe
  C1       1.0000 0.45260  0.76280  0.17050  Biso   1.000  C
  N1       1.0000 0.47180  0.72300  0.19910  Biso   1.000  N
  C2       1.0000 0.40900  0.88050  0.17680  Biso   1.000  C
  N2       1.0000 0.40520  0.89910  0.20930  Biso   1.000  N
  C3       1.0000 0.49420  0.87970  0.16450  Biso   1.000  C
  N3       1.0000 0.53350  0.89770  0.19000  Biso   1.000  N
  C4       1.0000 0.46510  0.77330  0.09700  Biso   1.000  C
  N4       1.0000 0.48870  0.73330  0.08630  Biso   1.000  N
  C5       1.0000 0.36200  0.76200  0.10700  Biso   1.000  C
  N5       1.0000 0.33210  0.71860  0.10090  Biso   1.000  N
  C6       1.0000 0.35060  0.90730  0.09490  Biso   1.000  C
  N6       1.0000 0.31320  0.93920  0.08120  Biso   1.000  N
  C7       1.0000 0.38200  0.83100  0.04500  Biso   1.000  C
  N7       1.0000 0.35940  0.82530  0.00610  Biso   1.000  N
  C8       1.0000 0.44040  0.93450  0.09260  Biso   1.000  C
  N8       1.0000 0.45100  0.98750  0.08060  Biso   1.000  N
  C9       1.0000 0.60740  0.65980  0.24320  Biso   1.000  C
  N9       1.0000 0.56930  0.65350  0.24640  Biso   1.000  N
  C10      1.0000 0.64960  0.76970  0.23290  Biso   1.000  C
  N10      1.0000 0.63390  0.82600  0.23120  Biso   1.000  N
  C11      1.0000 0.65800  0.55280  0.23560  Biso   1.000  C
  N11      1.0000 0.64600  0.49580  0.23810  Biso   1.000  N
  C12      1.0000 0.62030  0.65170  0.16730  Biso   1.000  C
  N12      1.0000 0.58750  0.65050  0.13080  Biso   1.000  N
  C13      1.0000 0.69880  0.64230  0.30590  Biso   1.000  C
  N13      1.0000 0.70810  0.63090  0.34320  Biso   1.000  N
  C14      1.0000 0.74100  0.60010  0.23620  Biso   1.000  C
  N14      1.0000 0.77460  0.56540  0.23690  Biso   1.000  N
  C15      1.0000 0.70460  0.71740  0.18840  Biso   1.000  C
  N15      1.0000 0.72360  0.75410  0.17110  Biso   1.000  N
  N16      1.0000 0.71450  0.73580  0.15790  Biso   1.000  N
  C16      1.0000 0.74470  0.72800  0.27490  Biso   1.000  C
  N17      1.0000 0.77940  0.76400  0.29530  Biso   1.000  N
  C17      1.0000 0.46510  0.52570  0.17480  Biso   1.000  C
  N18      1.0000 0.47750  0.57040  0.20190  Biso   1.000  N
  C18      1.0000 0.51270  0.41400  0.17380  Biso   1.000  C
  N19      1.0000 0.55300  0.39870  0.20020  Biso   1.000  N
  C19      1.0000 0.40650  0.41870  0.17080  Biso   1.000  C
  N20      1.0000 0.39000  0.40690  0.19720  Biso   1.000  N
  C20      1.0000 0.46910  0.53050  0.09640  Biso   1.000  C
  N21      1.0000 0.48740  0.57430  0.08340  Biso   1.000  N
  C21      1.0000 0.37670  0.52010  0.10880  Biso   1.000  C
  N22      1.0000 0.34450  0.55930  0.10180  Biso   1.000  N
  C22      1.0000 0.43610  0.33090  0.12870  Biso   1.000  C
  N23      1.0000 0.43500  0.27010  0.13180  Biso   1.000  N
  C23      1.0000 0.41790  0.33700  0.11640  Biso   1.000  C
  N24      1.0000 0.40670  0.28000  0.11200  Biso   1.000  N
  C24      1.0000 0.37460  0.41620  0.06070  Biso   1.000  C
  N25      1.0000 0.34200  0.40940  0.02320  Biso   1.000  N
  C25      1.0000 0.38400  0.43400  0.05290  Biso   1.000  C
  N26      1.0000 0.37000  0.44600  0.01960  Biso   1.000  N
  C26      1.0000 0.47760  0.39730  0.08500  Biso   1.000  C
  N27      1.0000 0.49830  0.37390  0.06390  Biso   1.000  N
  W4       1.0000 0.58036  0.84233  0.38177  Biso   1.000  W
  W5       1.0000 0.32169  0.66418  0.26502  Biso   1.000  W
  W6       1.0000 0.56101  0.44490  0.37678  Biso   1.000  W
  Fe5      1.0000 0.39329  0.92523  0.26569  Biso   1.000  Fe
  Fe6      1.0000 0.71568  0.62946  0.41005  Biso   1.000  Fe
  Fe7      1.0000 0.37086  0.38953  0.25265  Biso   1.000  Fe
  Fe8      1.0000 0.47309  0.65464  0.43168  Biso   1.000  Fe
  C27      1.0000 0.54740  0.76280  0.32950  Biso   1.000  C
  N28      1.0000 0.52820  0.72300  0.30090  Biso   1.000  N
  C28      1.0000 0.59100  0.88050  0.32320  Biso   1.000  C
  N29      1.0000 0.59480  0.89910  0.29070  Biso   1.000  N
  C29      1.0000 0.50580  0.87970  0.33550  Biso   1.000  C
  N30      1.0000 0.46650  0.89770  0.31000  Biso   1.000  N
  C30      1.0000 0.53490  0.77330  0.40300  Biso   1.000  C
  N31      1.0000 0.51130  0.73330  0.41370  Biso   1.000  N
  C31      1.0000 0.63800  0.76200  0.39300  Biso   1.000  C
  N32      1.0000 0.66790  0.71860  0.39910  Biso   1.000  N
  C32      1.0000 0.64940  0.90730  0.40510  Biso   1.000  C
  N33      1.0000 0.68680  0.93920  0.41880  Biso   1.000  N
  C33      1.0000 0.61800  0.83100  0.45500  Biso   1.000  C
  N34      1.0000 0.64060  0.82530  0.49390  Biso   1.000  N
  C34      1.0000 0.55960  0.93450  0.40740  Biso   1.000  C
  N35      1.0000 0.54900  0.98750  0.41940  Biso   1.000  N
  C35      1.0000 0.39260  0.65980  0.25680  Biso   1.000  C
  N36      1.0000 0.43070  0.65350  0.25360  Biso   1.000  N
  C36      1.0000 0.35040  0.76970  0.26710  Biso   1.000  C
  N37      1.0000 0.36610  0.82600  0.26880  Biso   1.000  N
  C37      1.0000 0.34200  0.55280  0.26440  Biso   1.000  C
  N38      1.0000 0.35400  0.49580  0.26190  Biso   1.000  N
  C38      1.0000 0.37970  0.65170  0.33270  Biso   1.000  C
  N39      1.0000 0.41250  0.65050  0.36920  Biso   1.000  N
  C39      1.0000 0.30120  0.64230  0.19410  Biso   1.000  C
  N40      1.0000 0.29190  0.63090  0.15680  Biso   1.000  N
  C40      1.0000 0.25900  0.60010  0.26380  Biso   1.000  C
  N41      1.0000 0.22540  0.56540  0.26310  Biso   1.000  N
  C41      1.0000 0.29540  0.71740  0.31160  Biso   1.000  C
  N42      1.0000 0.27640  0.75410  0.32890  Biso   1.000  N
  N43      1.0000 0.28550  0.73580  0.34210  Biso   1.000  N
  C42      1.0000 0.25530  0.72800  0.22510  Biso   1.000  C
  N44      1.0000 0.22060  0.76400  0.20470  Biso   1.000  N
  C43      1.0000 0.53490  0.52570  0.32520  Biso   1.000  C
  N45      1.0000 0.52250  0.57040  0.29810  Biso   1.000  N
  C44      1.0000 0.48730  0.41400  0.32620  Biso   1.000  C
  N46      1.0000 0.44700  0.39870  0.29980  Biso   1.000  N
  C45      1.0000 0.59350  0.41870  0.32920  Biso   1.000  C
  N47      1.0000 0.61000  0.40690  0.30280  Biso   1.000  N
  C46      1.0000 0.53090  0.53050  0.40360  Biso   1.000  C
  N48      1.0000 0.51260  0.57430  0.41660  Biso   1.000  N
  C47      1.0000 0.62330  0.52010  0.39120  Biso   1.000  C
  N49      1.0000 0.65550  0.55930  0.39820  Biso   1.000  N
  C48      1.0000 0.56390  0.33090  0.37130  Biso   1.000  C
  N50      1.0000 0.56500  0.27010  0.36820  Biso   1.000  N
  C49      1.0000 0.58210  0.33700  0.38360  Biso   1.000  C
  N51      1.0000 0.59330  0.28000  0.38800  Biso   1.000  N
  C50      1.0000 0.62540  0.41620  0.43930  Biso   1.000  C
  N52      1.0000 0.65800  0.40940  0.47680  Biso   1.000  N
  C51      1.0000 0.61600  0.43400  0.44710  Biso   1.000  C
  N53      1.0000 0.63000  0.44600  0.48040  Biso   1.000  N
  C52      1.0000 0.52240  0.39730  0.41500  Biso   1.000  C
  N54      1.0000 0.50170  0.37390  0.43610  Biso   1.000  N
  Fe9      1.0000 0.50000  0.64821  0.25000  Biso   1.000  Fe
  W7       1.0000 0.91964  0.34233  0.11823  Biso   1.000  W
  W8       1.0000 0.17831  0.16418  0.23498  Biso   1.000  W
  W9       1.0000 0.93899  0.94490  0.12322  Biso   1.000  W
  Fe10     1.0000 0.10671  0.42523  0.23431  Biso   1.000  Fe
  Fe11     1.0000 0.78432  0.12946  0.08995  Biso   1.000  Fe
  Fe12     1.0000 0.12914  0.88953  0.24735  Biso   1.000  Fe
  Fe13     1.0000 0.02691  0.15464  0.06832  Biso   1.000  Fe
  C53      1.0000 0.95260  0.26280  0.17050  Biso   1.000  C
  N55      1.0000 0.97180  0.22300  0.19910  Biso   1.000  N
  C54      1.0000 0.90900  0.38050  0.17680  Biso   1.000  C
  N56      1.0000 0.90520  0.39910  0.20930  Biso   1.000  N
  C55      1.0000 0.99420  0.37970  0.16450  Biso   1.000  C
  N57      1.0000 0.03350  0.39770  0.19000  Biso   1.000  N
  C56      1.0000 0.96510  0.27330  0.09700  Biso   1.000  C
  N58      1.0000 0.98870  0.23330  0.08630  Biso   1.000  N
  C57      1.0000 0.86200  0.26200  0.10700  Biso   1.000  C
  N59      1.0000 0.83210  0.21860  0.10090  Biso   1.000  N
  C58      1.0000 0.85060  0.40730  0.09490  Biso   1.000  C
  N60      1.0000 0.81320  0.43920  0.08120  Biso   1.000  N
  C59      1.0000 0.88200  0.33100  0.04500  Biso   1.000  C
  N61      1.0000 0.85940  0.32530  0.00610  Biso   1.000  N
  C60      1.0000 0.94040  0.43450  0.09260  Biso   1.000  C
  N62      1.0000 0.95100  0.48750  0.08060  Biso   1.000  N
  C61      1.0000 0.10740  0.15980  0.24320  Biso   1.000  C
  N63      1.0000 0.06930  0.15350  0.24640  Biso   1.000  N
  C62      1.0000 0.14960  0.26970  0.23290  Biso   1.000  C
  N64      1.0000 0.13390  0.32600  0.23120  Biso   1.000  N
  C63      1.0000 0.15800  0.05280  0.23560  Biso   1.000  C
  N65      1.0000 0.14600  0.99580  0.23810  Biso   1.000  N
  C64      1.0000 0.12030  0.15170  0.16730  Biso   1.000  C
  N66      1.0000 0.08750  0.15050  0.13080  Biso   1.000  N
  C65      1.0000 0.19880  0.14230  0.30590  Biso   1.000  C
  N67      1.0000 0.20810  0.13090  0.34320  Biso   1.000  N
  C66      1.0000 0.24100  0.10010  0.23620  Biso   1.000  C
  N68      1.0000 0.27460  0.06540  0.23690  Biso   1.000  N
  C67      1.0000 0.20460  0.21740  0.18840  Biso   1.000  C
  N69      1.0000 0.22360  0.25410  0.17110  Biso   1.000  N
  N70      1.0000 0.21450  0.23580  0.15790  Biso   1.000  N
  C68      1.0000 0.24470  0.22800  0.27490  Biso   1.000  C
  N71      1.0000 0.27940  0.26400  0.29530  Biso   1.000  N
  C69      1.0000 0.96510  0.02570  0.17480  Biso   1.000  C
  N72      1.0000 0.97750  0.07040  0.20190  Biso   1.000  N
  C70      1.0000 0.01270  0.91400  0.17380  Biso   1.000  C
  N73      1.0000 0.05300  0.89870  0.20020  Biso   1.000  N
  C71      1.0000 0.90650  0.91870  0.17080  Biso   1.000  C
  N74      1.0000 0.89000  0.90690  0.19720  Biso   1.000  N
  C72      1.0000 0.96910  0.03050  0.09640  Biso   1.000  C
  N75      1.0000 0.98740  0.07430  0.08340  Biso   1.000  N
  C73      1.0000 0.87670  0.02010  0.10880  Biso   1.000  C
  N76      1.0000 0.84450  0.05930  0.10180  Biso   1.000  N
  C74      1.0000 0.93610  0.83090  0.12870  Biso   1.000  C
  N77      1.0000 0.93500  0.77010  0.13180  Biso   1.000  N
  C75      1.0000 0.91790  0.83700  0.11640  Biso   1.000  C
  N78      1.0000 0.90670  0.78000  0.11200  Biso   1.000  N
  C76      1.0000 0.87460  0.91620  0.06070  Biso   1.000  C
  N79      1.0000 0.84200  0.90940  0.02320  Biso   1.000  N
  C77      1.0000 0.88400  0.93400  0.05290  Biso   1.000  C
  N80      1.0000 0.87000  0.94600  0.01960  Biso   1.000  N
  C78      1.0000 0.97760  0.89730  0.08500  Biso   1.000  C
  N81      1.0000 0.99830  0.87390  0.06390  Biso   1.000  N
  W10      1.0000 0.08036  0.34233  0.38177  Biso   1.000  W
  W11      1.0000 0.82169  0.16418  0.26502  Biso   1.000  W
  W12      1.0000 0.06101  0.94490  0.37678  Biso   1.000  W
  Fe14     1.0000 0.89329  0.42523  0.26569  Biso   1.000  Fe
  Fe15     1.0000 0.21568  0.12946  0.41005  Biso   1.000  Fe
  Fe16     1.0000 0.87086  0.88953  0.25265  Biso   1.000  Fe
  Fe17     1.0000 0.97309  0.15464  0.43168  Biso   1.000  Fe
  C79      1.0000 0.04740  0.26280  0.32950  Biso   1.000  C
  N82      1.0000 0.02820  0.22300  0.30090  Biso   1.000  N
  C80      1.0000 0.09100  0.38050  0.32320  Biso   1.000  C
  N83      1.0000 0.09480  0.39910  0.29070  Biso   1.000  N
  C81      1.0000 0.00580  0.37970  0.33550  Biso   1.000  C
  N84      1.0000 0.96650  0.39770  0.31000  Biso   1.000  N
  C82      1.0000 0.03490  0.27330  0.40300  Biso   1.000  C
  N85      1.0000 0.01130  0.23330  0.41370  Biso   1.000  N
  C83      1.0000 0.13800  0.26200  0.39300  Biso   1.000  C
  N86      1.0000 0.16790  0.21860  0.39910  Biso   1.000  N
  C84      1.0000 0.14940  0.40730  0.40510  Biso   1.000  C
  N87      1.0000 0.18680  0.43920  0.41880  Biso   1.000  N
  C85      1.0000 0.11800  0.33100  0.45500  Biso   1.000  C
  N88      1.0000 0.14060  0.32530  0.49390  Biso   1.000  N
  C86      1.0000 0.05960  0.43450  0.40740  Biso   1.000  C
  N89      1.0000 0.04900  0.48750  0.41940  Biso   1.000  N
  C87      1.0000 0.89260  0.15980  0.25680  Biso   1.000  C
  N90      1.0000 0.93070  0.15350  0.25360  Biso   1.000  N
  C88      1.0000 0.85040  0.26970  0.26710  Biso   1.000  C
  N91      1.0000 0.86610  0.32600  0.26880  Biso   1.000  N
  C89      1.0000 0.84200  0.05280  0.26440  Biso   1.000  C
  N92      1.0000 0.85400  0.99580  0.26190  Biso   1.000  N
  C90      1.0000 0.87970  0.15170  0.33270  Biso   1.000  C
  N93      1.0000 0.91250  0.15050  0.36920  Biso   1.000  N
  C91      1.0000 0.80120  0.14230  0.19410  Biso   1.000  C
  N94      1.0000 0.79190  0.13090  0.15680  Biso   1.000  N
  C92      1.0000 0.75900  0.10010  0.26380  Biso   1.000  C
  N95      1.0000 0.72540  0.06540  0.26310  Biso   1.000  N
  C93      1.0000 0.79540  0.21740  0.31160  Biso   1.000  C
  N96      1.0000 0.77640  0.25410  0.32890  Biso   1.000  N
  N97      1.0000 0.78550  0.23580  0.34210  Biso   1.000  N
  C94      1.0000 0.75530  0.22800  0.22510  Biso   1.000  C
  N98      1.0000 0.72060  0.26400  0.20470  Biso   1.000  N
  C95      1.0000 0.03490  0.02570  0.32520  Biso   1.000  C
  N99      1.0000 0.02250  0.07040  0.29810  Biso   1.000  N
  C96      1.0000 0.98730  0.91400  0.32620  Biso   1.000  C
  N100     1.0000 0.94700  0.89870  0.29980  Biso   1.000  N
  C97      1.0000 0.09350  0.91870  0.32920  Biso   1.000  C
  N101     1.0000 0.11000  0.90690  0.30280  Biso   1.000  N
  C98      1.0000 0.03090  0.03050  0.40360  Biso   1.000  C
  N102     1.0000 0.01260  0.07430  0.41660  Biso   1.000  N
  C99      1.0000 0.12330  0.02010  0.39120  Biso   1.000  C
  N103     1.0000 0.15550  0.05930  0.39820  Biso   1.000  N
  C100     1.0000 0.06390  0.83090  0.37130  Biso   1.000  C
  N104     1.0000 0.06500  0.77010  0.36820  Biso   1.000  N
  C101     1.0000 0.08210  0.83700  0.38360  Biso   1.000  C
  N105     1.0000 0.09330  0.78000  0.38800  Biso   1.000  N
  C102     1.0000 0.12540  0.91620  0.43930  Biso   1.000  C
  N106     1.0000 0.15800  0.90940  0.47680  Biso   1.000  N
  C103     1.0000 0.11600  0.93400  0.44710  Biso   1.000  C
  N107     1.0000 0.13000  0.94600  0.48040  Biso   1.000  N
  C104     1.0000 0.02240  0.89730  0.41500  Biso   1.000  C
  N108     1.0000 0.00170  0.87390  0.43610  Biso   1.000  N
  Fe18     1.0000 0.00000  0.14821  0.25000  Biso   1.000  Fe
  W13      1.0000 0.58036  0.15767  0.88177  Biso   1.000  W
  W14      1.0000 0.32169  0.33582  0.76502  Biso   1.000  W
  W15      1.0000 0.56101  0.55510  0.87678  Biso   1.000  W
  Fe19     1.0000 0.39329  0.07477  0.76569  Biso   1.000  Fe
  Fe20     1.0000 0.71568  0.37054  0.91005  Biso   1.000  Fe
  Fe21     1.0000 0.37086  0.61047  0.75265  Biso   1.000  Fe
  Fe22     1.0000 0.47309  0.34536  0.93168  Biso   1.000  Fe
  C105     1.0000 0.54740  0.23720  0.82950  Biso   1.000  C
  N109     1.0000 0.52820  0.27700  0.80090  Biso   1.000  N
  C106     1.0000 0.59100  0.11950  0.82320  Biso   1.000  C
  N110     1.0000 0.59480  0.10090  0.79070  Biso   1.000  N
  C107     1.0000 0.50580  0.12030  0.83550  Biso   1.000  C
  N111     1.0000 0.46650  0.10230  0.81000  Biso   1.000  N
  C108     1.0000 0.53490  0.22670  0.90300  Biso   1.000  C
  N112     1.0000 0.51130  0.26670  0.91370  Biso   1.000  N
  C109     1.0000 0.63800  0.23800  0.89300  Biso   1.000  C
  N113     1.0000 0.66790  0.28140  0.89910  Biso   1.000  N
  C110     1.0000 0.64940  0.09270  0.90510  Biso   1.000  C
  N114     1.0000 0.68680  0.06080  0.91880  Biso   1.000  N
  C111     1.0000 0.61800  0.16900  0.95500  Biso   1.000  C
  N115     1.0000 0.64060  0.17470  0.99390  Biso   1.000  N
  C112     1.0000 0.55960  0.06550  0.90740  Biso   1.000  C
  N116     1.0000 0.54900  0.01250  0.91940  Biso   1.000  N
  C113     1.0000 0.39260  0.34020  0.75680  Biso   1.000  C
  N117     1.0000 0.43070  0.34650  0.75360  Biso   1.000  N
  C114     1.0000 0.35040  0.23030  0.76710  Biso   1.000  C
  N118     1.0000 0.36610  0.17400  0.76880  Biso   1.000  N
  C115     1.0000 0.34200  0.44720  0.76440  Biso   1.000  C
  N119     1.0000 0.35400  0.50420  0.76190  Biso   1.000  N
  C116     1.0000 0.37970  0.34830  0.83270  Biso   1.000  C
  N120     1.0000 0.41250  0.34950  0.86920  Biso   1.000  N
  C117     1.0000 0.30120  0.35770  0.69410  Biso   1.000  C
  N121     1.0000 0.29190  0.36910  0.65680  Biso   1.000  N
  C118     1.0000 0.25900  0.39990  0.76380  Biso   1.000  C
  N122     1.0000 0.22540  0.43460  0.76310  Biso   1.000  N
  C119     1.0000 0.29540  0.28260  0.81160  Biso   1.000  C
  N123     1.0000 0.27640  0.24590  0.82890  Biso   1.000  N
  N124     1.0000 0.28550  0.26420  0.84210  Biso   1.000  N
  C120     1.0000 0.25530  0.27200  0.72510  Biso   1.000  C
  N125     1.0000 0.22060  0.23600  0.70470  Biso   1.000  N
  C121     1.0000 0.53490  0.47430  0.82520  Biso   1.000  C
  N126     1.0000 0.52250  0.42960  0.79810  Biso   1.000  N
  C122     1.0000 0.48730  0.58600  0.82620  Biso   1.000  C
  N127     1.0000 0.44700  0.60130  0.79980  Biso   1.000  N
  C123     1.0000 0.59350  0.58130  0.82920  Biso   1.000  C
  N128     1.0000 0.61000  0.59310  0.80280  Biso   1.000  N
  C124     1.0000 0.53090  0.46950  0.90360  Biso   1.000  C
  N129     1.0000 0.51260  0.42570  0.91660  Biso   1.000  N
  C125     1.0000 0.62330  0.47990  0.89120  Biso   1.000  C
  N130     1.0000 0.65550  0.44070  0.89820  Biso   1.000  N
  C126     1.0000 0.56390  0.66910  0.87130  Biso   1.000  C
  N131     1.0000 0.56500  0.72990  0.86820  Biso   1.000  N
  C127     1.0000 0.58210  0.66300  0.88360  Biso   1.000  C
  N132     1.0000 0.59330  0.72000  0.88800  Biso   1.000  N
  C128     1.0000 0.62540  0.58380  0.93930  Biso   1.000  C
  N133     1.0000 0.65800  0.59060  0.97680  Biso   1.000  N
  C129     1.0000 0.61600  0.56600  0.94710  Biso   1.000  C
  N134     1.0000 0.63000  0.55400  0.98040  Biso   1.000  N
  C130     1.0000 0.52240  0.60270  0.91500  Biso   1.000  C
  N135     1.0000 0.50170  0.62610  0.93610  Biso   1.000  N
  W16      1.0000 0.41964  0.15767  0.61823  Biso   1.000  W
  W17      1.0000 0.67831  0.33582  0.73498  Biso   1.000  W
  W18      1.0000 0.43899  0.55510  0.62322  Biso   1.000  W
  Fe23     1.0000 0.60671  0.07477  0.73431  Biso   1.000  Fe
  Fe24     1.0000 0.28432  0.37054  0.58995  Biso   1.000  Fe
  Fe25     1.0000 0.62914  0.61047  0.74735  Biso   1.000  Fe
  Fe26     1.0000 0.52691  0.34536  0.56832  Biso   1.000  Fe
  C131     1.0000 0.45260  0.23720  0.67050  Biso   1.000  C
  N136     1.0000 0.47180  0.27700  0.69910  Biso   1.000  N
  C132     1.0000 0.40900  0.11950  0.67680  Biso   1.000  C
  N137     1.0000 0.40520  0.10090  0.70930  Biso   1.000  N
  C133     1.0000 0.49420  0.12030  0.66450  Biso   1.000  C
  N138     1.0000 0.53350  0.10230  0.69000  Biso   1.000  N
  C134     1.0000 0.46510  0.22670  0.59700  Biso   1.000  C
  N139     1.0000 0.48870  0.26670  0.58630  Biso   1.000  N
  C135     1.0000 0.36200  0.23800  0.60700  Biso   1.000  C
  N140     1.0000 0.33210  0.28140  0.60090  Biso   1.000  N
  C136     1.0000 0.35060  0.09270  0.59490  Biso   1.000  C
  N141     1.0000 0.31320  0.06080  0.58120  Biso   1.000  N
  C137     1.0000 0.38200  0.16900  0.54500  Biso   1.000  C
  N142     1.0000 0.35940  0.17470  0.50610  Biso   1.000  N
  C138     1.0000 0.44040  0.06550  0.59260  Biso   1.000  C
  N143     1.0000 0.45100  0.01250  0.58060  Biso   1.000  N
  C139     1.0000 0.60740  0.34020  0.74320  Biso   1.000  C
  N144     1.0000 0.56930  0.34650  0.74640  Biso   1.000  N
  C140     1.0000 0.64960  0.23030  0.73290  Biso   1.000  C
  N145     1.0000 0.63390  0.17400  0.73120  Biso   1.000  N
  C141     1.0000 0.65800  0.44720  0.73560  Biso   1.000  C
  N146     1.0000 0.64600  0.50420  0.73810  Biso   1.000  N
  C142     1.0000 0.62030  0.34830  0.66730  Biso   1.000  C
  N147     1.0000 0.58750  0.34950  0.63080  Biso   1.000  N
  C143     1.0000 0.69880  0.35770  0.80590  Biso   1.000  C
  N148     1.0000 0.70810  0.36910  0.84320  Biso   1.000  N
  C144     1.0000 0.74100  0.39990  0.73620  Biso   1.000  C
  N149     1.0000 0.77460  0.43460  0.73690  Biso   1.000  N
  C145     1.0000 0.70460  0.28260  0.68840  Biso   1.000  C
  N150     1.0000 0.72360  0.24590  0.67110  Biso   1.000  N
  N151     1.0000 0.71450  0.26420  0.65790  Biso   1.000  N
  C146     1.0000 0.74470  0.27200  0.77490  Biso   1.000  C
  N152     1.0000 0.77940  0.23600  0.79530  Biso   1.000  N
  C147     1.0000 0.46510  0.47430  0.67480  Biso   1.000  C
  N153     1.0000 0.47750  0.42960  0.70190  Biso   1.000  N
  C148     1.0000 0.51270  0.58600  0.67380  Biso   1.000  C
  N154     1.0000 0.55300  0.60130  0.70020  Biso   1.000  N
  C149     1.0000 0.40650  0.58130  0.67080  Biso   1.000  C
  N155     1.0000 0.39000  0.59310  0.69720  Biso   1.000  N
  C150     1.0000 0.46910  0.46950  0.59640  Biso   1.000  C
  N156     1.0000 0.48740  0.42570  0.58340  Biso   1.000  N
  C151     1.0000 0.37670  0.47990  0.60880  Biso   1.000  C
  N157     1.0000 0.34450  0.44070  0.60180  Biso   1.000  N
  C152     1.0000 0.43610  0.66910  0.62870  Biso   1.000  C
  N158     1.0000 0.43500  0.72990  0.63180  Biso   1.000  N
  C153     1.0000 0.41790  0.66300  0.61640  Biso   1.000  C
  N159     1.0000 0.40670  0.72000  0.61200  Biso   1.000  N
  C154     1.0000 0.37460  0.58380  0.56070  Biso   1.000  C
  N160     1.0000 0.34200  0.59060  0.52320  Biso   1.000  N
  C155     1.0000 0.38400  0.56600  0.55290  Biso   1.000  C
  N161     1.0000 0.37000  0.55400  0.51960  Biso   1.000  N
  C156     1.0000 0.47760  0.60270  0.58500  Biso   1.000  C
  N162     1.0000 0.49830  0.62610  0.56390  Biso   1.000  N
  Fe27     1.0000 0.50000  0.35179  0.75000  Biso   1.000  Fe
  W19      1.0000 0.08036  0.65767  0.88177  Biso   1.000  W
  W20      1.0000 0.82169  0.83582  0.76502  Biso   1.000  W
  W21      1.0000 0.06101  0.05510  0.87678  Biso   1.000  W
  Fe28     1.0000 0.89329  0.57477  0.76569  Biso   1.000  Fe
  Fe29     1.0000 0.21568  0.87054  0.91005  Biso   1.000  Fe
  Fe30     1.0000 0.87086  0.11047  0.75265  Biso   1.000  Fe
  Fe31     1.0000 0.97309  0.84536  0.93168  Biso   1.000  Fe
  C157     1.0000 0.04740  0.73720  0.82950  Biso   1.000  C
  N163     1.0000 0.02820  0.77700  0.80090  Biso   1.000  N
  C158     1.0000 0.09100  0.61950  0.82320  Biso   1.000  C
  N164     1.0000 0.09480  0.60090  0.79070  Biso   1.000  N
  C159     1.0000 0.00580  0.62030  0.83550  Biso   1.000  C
  N165     1.0000 0.96650  0.60230  0.81000  Biso   1.000  N
  C160     1.0000 0.03490  0.72670  0.90300  Biso   1.000  C
  N166     1.0000 0.01130  0.76670  0.91370  Biso   1.000  N
  C161     1.0000 0.13800  0.73800  0.89300  Biso   1.000  C
  N167     1.0000 0.16790  0.78140  0.89910  Biso   1.000  N
  C162     1.0000 0.14940  0.59270  0.90510  Biso   1.000  C
  N168     1.0000 0.18680  0.56080  0.91880  Biso   1.000  N
  C163     1.0000 0.11800  0.66900  0.95500  Biso   1.000  C
  N169     1.0000 0.14060  0.67470  0.99390  Biso   1.000  N
  C164     1.0000 0.05960  0.56550  0.90740  Biso   1.000  C
  N170     1.0000 0.04900  0.51250  0.91940  Biso   1.000  N
  C165     1.0000 0.89260  0.84020  0.75680  Biso   1.000  C
  N171     1.0000 0.93070  0.84650  0.75360  Biso   1.000  N
  C166     1.0000 0.85040  0.73030  0.76710  Biso   1.000  C
  N172     1.0000 0.86610  0.67400  0.76880  Biso   1.000  N
  C167     1.0000 0.84200  0.94720  0.76440  Biso   1.000  C
  N173     1.0000 0.85400  0.00420  0.76190  Biso   1.000  N
  C168     1.0000 0.87970  0.84830  0.83270  Biso   1.000  C
  N174     1.0000 0.91250  0.84950  0.86920  Biso   1.000  N
  C169     1.0000 0.80120  0.85770  0.69410  Biso   1.000  C
  N175     1.0000 0.79190  0.86910  0.65680  Biso   1.000  N
  C170     1.0000 0.75900  0.89990  0.76380  Biso   1.000  C
  N176     1.0000 0.72540  0.93460  0.76310  Biso   1.000  N
  C171     1.0000 0.79540  0.78260  0.81160  Biso   1.000  C
  N177     1.0000 0.77640  0.74590  0.82890  Biso   1.000  N
  N178     1.0000 0.78550  0.76420  0.84210  Biso   1.000  N
  C172     1.0000 0.75530  0.77200  0.72510  Biso   1.000  C
  N179     1.0000 0.72060  0.73600  0.70470  Biso   1.000  N
  C173     1.0000 0.03490  0.97430  0.82520  Biso   1.000  C
  N180     1.0000 0.02250  0.92960  0.79810  Biso   1.000  N
  C174     1.0000 0.98730  0.08600  0.82620  Biso   1.000  C
  N181     1.0000 0.94700  0.10130  0.79980  Biso   1.000  N
  C175     1.0000 0.09350  0.08130  0.82920  Biso   1.000  C
  N182     1.0000 0.11000  0.09310  0.80280  Biso   1.000  N
  C176     1.0000 0.03090  0.96950  0.90360  Biso   1.000  C
  N183     1.0000 0.01260  0.92570  0.91660  Biso   1.000  N
  C177     1.0000 0.12330  0.97990  0.89120  Biso   1.000  C
  N184     1.0000 0.15550  0.94070  0.89820  Biso   1.000  N
  C178     1.0000 0.06390  0.16910  0.87130  Biso   1.000  C
  N185     1.0000 0.06500  0.22990  0.86820  Biso   1.000  N
  C179     1.0000 0.08210  0.16300  0.88360  Biso   1.000  C
  N186     1.0000 0.09330  0.22000  0.88800  Biso   1.000  N
  C180     1.0000 0.12540  0.08380  0.93930  Biso   1.000  C
  N187     1.0000 0.15800  0.09060  0.97680  Biso   1.000  N
  C181     1.0000 0.11600  0.06600  0.94710  Biso   1.000  C
  N188     1.0000 0.13000  0.05400  0.98040  Biso   1.000  N
  C182     1.0000 0.02240  0.10270  0.91500  Biso   1.000  C
  N189     1.0000 0.00170  0.12610  0.93610  Biso   1.000  N
  W22      1.0000 0.91964  0.65767  0.61823  Biso   1.000  W
  W23      1.0000 0.17831  0.83582  0.73498  Biso   1.000  W
  W24      1.0000 0.93899  0.05510  0.62322  Biso   1.000  W
  Fe32     1.0000 0.10671  0.57477  0.73431  Biso   1.000  Fe
  Fe33     1.0000 0.78432  0.87054  0.58995  Biso   1.000  Fe
  Fe34     1.0000 0.12914  0.11047  0.74735  Biso   1.000  Fe
  Fe35     1.0000 0.02691  0.84536  0.56832  Biso   1.000  Fe
  C183     1.0000 0.95260  0.73720  0.67050  Biso   1.000  C
  N190     1.0000 0.97180  0.77700  0.69910  Biso   1.000  N
  C184     1.0000 0.90900  0.61950  0.67680  Biso   1.000  C
  N191     1.0000 0.90520  0.60090  0.70930  Biso   1.000  N
  C185     1.0000 0.99420  0.62030  0.66450  Biso   1.000  C
  N192     1.0000 0.03350  0.60230  0.69000  Biso   1.000  N
  C186     1.0000 0.96510  0.72670  0.59700  Biso   1.000  C
  N193     1.0000 0.98870  0.76670  0.58630  Biso   1.000  N
  C187     1.0000 0.86200  0.73800  0.60700  Biso   1.000  C
  N194     1.0000 0.83210  0.78140  0.60090  Biso   1.000  N
  C188     1.0000 0.85060  0.59270  0.59490  Biso   1.000  C
  N195     1.0000 0.81320  0.56080  0.58120  Biso   1.000  N
  C189     1.0000 0.88200  0.66900  0.54500  Biso   1.000  C
  N196     1.0000 0.85940  0.67470  0.50610  Biso   1.000  N
  C190     1.0000 0.94040  0.56550  0.59260  Biso   1.000  C
  N197     1.0000 0.95100  0.51250  0.58060  Biso   1.000  N
  C191     1.0000 0.10740  0.84020  0.74320  Biso   1.000  C
  N198     1.0000 0.06930  0.84650  0.74640  Biso   1.000  N
  C192     1.0000 0.14960  0.73030  0.73290  Biso   1.000  C
  N199     1.0000 0.13390  0.67400  0.73120  Biso   1.000  N
  C193     1.0000 0.15800  0.94720  0.73560  Biso   1.000  C
  N200     1.0000 0.14600  0.00420  0.73810  Biso   1.000  N
  C194     1.0000 0.12030  0.84830  0.66730  Biso   1.000  C
  N201     1.0000 0.08750  0.84950  0.63080  Biso   1.000  N
  C195     1.0000 0.19880  0.85770  0.80590  Biso   1.000  C
  N202     1.0000 0.20810  0.86910  0.84320  Biso   1.000  N
  C196     1.0000 0.24100  0.89990  0.73620  Biso   1.000  C
  N203     1.0000 0.27460  0.93460  0.73690  Biso   1.000  N
  C197     1.0000 0.20460  0.78260  0.68840  Biso   1.000  C
  N204     1.0000 0.22360  0.74590  0.67110  Biso   1.000  N
  N205     1.0000 0.21450  0.76420  0.65790  Biso   1.000  N
  C198     1.0000 0.24470  0.77200  0.77490  Biso   1.000  C
  N206     1.0000 0.27940  0.73600  0.79530  Biso   1.000  N
  C199     1.0000 0.96510  0.97430  0.67480  Biso   1.000  C
  N207     1.0000 0.97750  0.92960  0.70190  Biso   1.000  N
  C200     1.0000 0.01270  0.08600  0.67380  Biso   1.000  C
  N208     1.0000 0.05300  0.10130  0.70020  Biso   1.000  N
  C201     1.0000 0.90650  0.08130  0.67080  Biso   1.000  C
  N209     1.0000 0.89000  0.09310  0.69720  Biso   1.000  N
  C202     1.0000 0.96910  0.96950  0.59640  Biso   1.000  C
  N210     1.0000 0.98740  0.92570  0.58340  Biso   1.000  N
  C203     1.0000 0.87670  0.97990  0.60880  Biso   1.000  C
  N211     1.0000 0.84450  0.94070  0.60180  Biso   1.000  N
  C204     1.0000 0.93610  0.16910  0.62870  Biso   1.000  C
  N212     1.0000 0.93500  0.22990  0.63180  Biso   1.000  N
  C205     1.0000 0.91790  0.16300  0.61640  Biso   1.000  C
  N213     1.0000 0.90670  0.22000  0.61200  Biso   1.000  N
  C206     1.0000 0.87460  0.08380  0.56070  Biso   1.000  C
  N214     1.0000 0.84200  0.09060  0.52320  Biso   1.000  N
  C207     1.0000 0.88400  0.06600  0.55290  Biso   1.000  C
  N215     1.0000 0.87000  0.05400  0.51960  Biso   1.000  N
  C208     1.0000 0.97760  0.10270  0.58500  Biso   1.000  C
  N216     1.0000 0.99830  0.12610  0.56390  Biso   1.000  N
  Fe36     1.0000 0.00000  0.85179  0.75000  Biso   1.000  Fe
