data_KIJYIM01_clean
_audit_creation_date              2015-10-16
_audit_creation_method            'Materials Studio'
_symmetry_space_group_name_H-M    'P1'
_symmetry_Int_Tables_number       1
_symmetry_cell_setting            triclinic
loop_
_symmetry_equiv_pos_as_xyz
  x,y,z
_cell_length_a                    6.0762
_cell_length_b                    8.8545
_cell_length_c                    15.7520
_cell_angle_alpha                 92.8780
_cell_angle_beta                  90.0000
_cell_angle_gamma                 90.0000
loop_
_atom_site_label
_atom_site_type_symbol
_atom_site_fract_x
_atom_site_fract_y
_atom_site_fract_z
_atom_site_U_iso_or_equiv
_atom_site_adp_type
_atom_site_occupancy
Ag1    Ag    0.93635   0.74632   0.82035   0.01267  Uiso   1.00
Ag2    Ag    0.69512   0.36126   0.30910   0.01267  Uiso   1.00
Ag3    Ag    0.06365   0.25368   0.17965   0.01267  Uiso   1.00
Ag4    Ag    0.30488   0.63874   0.69090   0.01267  Uiso   1.00
Ag5    Ag    0.56365   0.74632   0.32035   0.01267  Uiso   1.00
Ag6    Ag    0.80488   0.36126   0.80910   0.01267  Uiso   1.00
Ag7    Ag    0.19512   0.63874   0.19090   0.01267  Uiso   1.00
Ag8    Ag    0.43635   0.25368   0.67965   0.01267  Uiso   1.00
H1     H     0.04860   0.88630   0.40860   0.01267  Uiso   1.00
H2     H     0.10910   0.38660   0.00030   0.01267  Uiso   1.00
H3     H     0.95140   0.11370   0.59140   0.01267  Uiso   1.00
H4     H     0.27520   0.84360   0.52300   0.01267  Uiso   1.00
H5     H     0.22480   0.84360   0.02300   0.01267  Uiso   1.00
H6     H     0.39090   0.38660   0.50030   0.01267  Uiso   1.00
H7     H     0.60910   0.61340   0.49970   0.01267  Uiso   1.00
H8     H     0.54860   0.11370   0.09140   0.01267  Uiso   1.00
H9     H     0.89090   0.61340   0.99970   0.01267  Uiso   1.00
H10    H     0.77520   0.15640   0.97700   0.01267  Uiso   1.00
H11    H     0.72480   0.15640   0.47700   0.01267  Uiso   1.00
H12    H     0.45140   0.88630   0.90860   0.01267  Uiso   1.00
C1     C     0.25380   0.33990   0.49710   0.01267  Uiso   1.00
C2     C     0.64010   0.20560   0.98120   0.01267  Uiso   1.00
C3     C     0.69170   0.52010   0.13540   0.01267  Uiso   1.00
C4     C     0.24620   0.33990   0.99710   0.01267  Uiso   1.00
C5     C     0.50230   0.17920   0.05070   0.01267  Uiso   1.00
C6     C     0.14010   0.79440   0.51880   0.01267  Uiso   1.00
C7     C     0.35990   0.79440   0.01880   0.01267  Uiso   1.00
C8     C     0.80830   0.52010   0.63540   0.01267  Uiso   1.00
C9     C     0.19170   0.47990   0.36460   0.01267  Uiso   1.00
C10    C     0.74620   0.66010   0.50290   0.01267  Uiso   1.00
C11    C     0.49770   0.82080   0.94930   0.01267  Uiso   1.00
C12    C     0.30830   0.47990   0.86460   0.01267  Uiso   1.00
C13    C     0.88380   0.63320   0.57020   0.01267  Uiso   1.00
C14    C     0.38380   0.36680   0.92980   0.01267  Uiso   1.00
C15    C     0.11620   0.36680   0.42980   0.01267  Uiso   1.00
C16    C     0.00230   0.82080   0.44930   0.01267  Uiso   1.00
C17    C     0.85990   0.20560   0.48120   0.01267  Uiso   1.00
C18    C     0.61620   0.63320   0.07020   0.01267  Uiso   1.00
C19    C     0.75380   0.66010   0.00290   0.01267  Uiso   1.00
C20    C     0.99770   0.17920   0.55070   0.01267  Uiso   1.00
N1     N     0.69230   0.75410   0.94080   0.01267  Uiso   1.00
N2     N     0.80770   0.75410   0.44080   0.01267  Uiso   1.00
N3     N     0.41730   0.70090   0.07880   0.01267  Uiso   1.00
N4     N     0.19230   0.24590   0.55920   0.01267  Uiso   1.00
N5     N     0.91730   0.29910   0.42120   0.01267  Uiso   1.00
N6     N     0.58270   0.29910   0.92120   0.01267  Uiso   1.00
N7     N     0.30770   0.24590   0.05920   0.01267  Uiso   1.00
N8     N     0.08270   0.70090   0.57880   0.01267  Uiso   1.00
O1     O     0.87310   0.45760   0.12040   0.01267  Uiso   1.00
O2     O     0.62690   0.45760   0.62040   0.01267  Uiso   1.00
O3     O     0.56570   0.49870   0.19840   0.01267  Uiso   1.00
O4     O     0.93430   0.49870   0.69840   0.01267  Uiso   1.00
O5     O     0.12690   0.54240   0.87960   0.01267  Uiso   1.00
O6     O     0.06570   0.50130   0.30160   0.01267  Uiso   1.00
O7     O     0.43430   0.50130   0.80160   0.01267  Uiso   1.00
O8     O     0.37310   0.54240   0.37960   0.01267  Uiso   1.00
