data_image0
_cell_length_a       8.9002
_cell_length_b       11.9323
_cell_length_c       15.0516
_cell_angle_alpha    90
_cell_angle_beta     100.053
_cell_angle_gamma    90

_symmetry_space_group_name_H-M    "P 1"
_symmetry_int_tables_number       1

loop_
  _symmetry_equiv_pos_as_xyz
  'x, y, z'

loop_
  _atom_site_label
  _atom_site_occupancy
  _atom_site_fract_x
  _atom_site_fract_y
  _atom_site_fract_z
  _atom_site_thermal_displace_type
  _atom_site_B_iso_or_equiv
  _atom_site_type_symbol
  Zr1      1.0000 0.49834  0.91077  0.62416  Biso   1.000  Zr
  N1       1.0000 0.35340  0.81470  0.71350  Biso   1.000  N
  N2       1.0000 0.66800  0.80360  0.72330  Biso   1.000  N
  O1       1.0000 0.55360  0.01480  0.72620  Biso   1.000  O
  O2       1.0000 0.70110  0.89370  0.57180  Biso   1.000  O
  O3       1.0000 0.43460  0.77830  0.54850  Biso   1.000  O
  O4       1.0000 0.27270  0.96930  0.59180  Biso   1.000  O
  C1       1.0000 0.44980  0.77970  0.80070  Biso   1.000  C
  C2       1.0000 0.28690  0.71800  0.65830  Biso   1.000  C
  C3       1.0000 0.23290  0.89170  0.72960  Biso   1.000  C
  C4       1.0000 0.59560  0.72750  0.78050  Biso   1.000  C
  C5       1.0000 0.76140  0.88890  0.77850  Biso   1.000  C
  C6       1.0000 0.76210  0.73980  0.66910  Biso   1.000  C
  C7       1.0000 0.67210  0.99640  0.78710  Biso   1.000  C
  C8       1.0000 0.78560  0.80710  0.58920  Biso   1.000  C
  C9       1.0000 0.33000  0.71180  0.56550  Biso   1.000  C
  C10      1.0000 0.17540  0.95650  0.64420  Biso   1.000  C
  H1       1.0000 0.39500  0.72590  0.83130  Biso   1.000  H
  H2       1.0000 0.47380  0.84430  0.83970  Biso   1.000  H
  H3       1.0000 0.17660  0.72180  0.65150  Biso   1.000  H
  H4       1.0000 0.31960  0.64940  0.69060  Biso   1.000  H
  H5       1.0000 0.27270  0.94320  0.77790  Biso   1.000  H
  H6       1.0000 0.14970  0.84980  0.74760  Biso   1.000  H
  H7       1.0000 0.66530  0.71330  0.83650  Biso   1.000  H
  H8       1.0000 0.57250  0.65650  0.74970  Biso   1.000  H
  H9       1.0000 0.84980  0.90630  0.75140  Biso   1.000  H
  H10      1.0000 0.79760  0.85860  0.83820  Biso   1.000  H
  H11      1.0000 0.71160  0.66990  0.64910  Biso   1.000  H
  H12      1.0000 0.86010  0.72220  0.70580  Biso   1.000  H
  O5       1.0000 0.71880  0.06150  0.84860  Biso   1.000  O
  O6       1.0000 0.88160  0.77640  0.54340  Biso   1.000  O
  O7       1.0000 0.26730  0.64150  0.51080  Biso   1.000  O
  O8       1.0000 0.04460  0.99670  0.62960  Biso   1.000  O
  Zr2      1.0000 0.99834  0.41077  0.62416  Biso   1.000  Zr
  N3       1.0000 0.85340  0.31470  0.71350  Biso   1.000  N
  N4       1.0000 0.16800  0.30360  0.72330  Biso   1.000  N
  O9       1.0000 0.05360  0.51480  0.72620  Biso   1.000  O
  O10      1.0000 0.20110  0.39370  0.57180  Biso   1.000  O
  O11      1.0000 0.93460  0.27830  0.54850  Biso   1.000  O
  O12      1.0000 0.77270  0.46930  0.59180  Biso   1.000  O
  C11      1.0000 0.94980  0.27970  0.80070  Biso   1.000  C
  C12      1.0000 0.78690  0.21800  0.65830  Biso   1.000  C
  C13      1.0000 0.73290  0.39170  0.72960  Biso   1.000  C
  C14      1.0000 0.09560  0.22750  0.78050  Biso   1.000  C
  C15      1.0000 0.26140  0.38890  0.77850  Biso   1.000  C
  C16      1.0000 0.26210  0.23980  0.66910  Biso   1.000  C
  C17      1.0000 0.17210  0.49640  0.78710  Biso   1.000  C
  C18      1.0000 0.28560  0.30710  0.58920  Biso   1.000  C
  C19      1.0000 0.83000  0.21180  0.56550  Biso   1.000  C
  C20      1.0000 0.67540  0.45650  0.64420  Biso   1.000  C
  H13      1.0000 0.89500  0.22590  0.83130  Biso   1.000  H
  H14      1.0000 0.97380  0.34430  0.83970  Biso   1.000  H
  H15      1.0000 0.67660  0.22180  0.65150  Biso   1.000  H
  H16      1.0000 0.81960  0.14940  0.69060  Biso   1.000  H
  H17      1.0000 0.77270  0.44320  0.77790  Biso   1.000  H
  H18      1.0000 0.64970  0.34980  0.74760  Biso   1.000  H
  H19      1.0000 0.16530  0.21330  0.83650  Biso   1.000  H
  H20      1.0000 0.07250  0.15650  0.74970  Biso   1.000  H
  H21      1.0000 0.34980  0.40630  0.75140  Biso   1.000  H
  H22      1.0000 0.29760  0.35860  0.83820  Biso   1.000  H
  H23      1.0000 0.21160  0.16990  0.64910  Biso   1.000  H
  H24      1.0000 0.36010  0.22220  0.70580  Biso   1.000  H
  O13      1.0000 0.21880  0.56150  0.84860  Biso   1.000  O
  O14      1.0000 0.38160  0.27640  0.54340  Biso   1.000  O
  O15      1.0000 0.76730  0.14150  0.51080  Biso   1.000  O
  O16      1.0000 0.54460  0.49670  0.62960  Biso   1.000  O
  Zr3      1.0000 0.49834  0.08923  0.12416  Biso   1.000  Zr
  N5       1.0000 0.35340  0.18530  0.21350  Biso   1.000  N
  N6       1.0000 0.66800  0.19640  0.22330  Biso   1.000  N
  O17      1.0000 0.55360  0.98520  0.22620  Biso   1.000  O
  O18      1.0000 0.70110  0.10630  0.07180  Biso   1.000  O
  O19      1.0000 0.43460  0.22170  0.04850  Biso   1.000  O
  O20      1.0000 0.27270  0.03070  0.09180  Biso   1.000  O
  C21      1.0000 0.44980  0.22030  0.30070  Biso   1.000  C
  C22      1.0000 0.28690  0.28200  0.15830  Biso   1.000  C
  C23      1.0000 0.23290  0.10830  0.22960  Biso   1.000  C
  C24      1.0000 0.59560  0.27250  0.28050  Biso   1.000  C
  C25      1.0000 0.76140  0.11110  0.27850  Biso   1.000  C
  C26      1.0000 0.76210  0.26020  0.16910  Biso   1.000  C
  C27      1.0000 0.67210  0.00360  0.28710  Biso   1.000  C
  C28      1.0000 0.78560  0.19290  0.08920  Biso   1.000  C
  C29      1.0000 0.33000  0.28820  0.06550  Biso   1.000  C
  C30      1.0000 0.17540  0.04350  0.14420  Biso   1.000  C
  H25      1.0000 0.39500  0.27410  0.33130  Biso   1.000  H
  H26      1.0000 0.47380  0.15570  0.33970  Biso   1.000  H
  H27      1.0000 0.17660  0.27820  0.15150  Biso   1.000  H
  H28      1.0000 0.31960  0.35060  0.19060  Biso   1.000  H
  H29      1.0000 0.27270  0.05680  0.27790  Biso   1.000  H
  H30      1.0000 0.14970  0.15020  0.24760  Biso   1.000  H
  H31      1.0000 0.66530  0.28670  0.33650  Biso   1.000  H
  H32      1.0000 0.57250  0.34350  0.24970  Biso   1.000  H
  H33      1.0000 0.84980  0.09370  0.25140  Biso   1.000  H
  H34      1.0000 0.79760  0.14140  0.33820  Biso   1.000  H
  H35      1.0000 0.71160  0.33010  0.14910  Biso   1.000  H
  H36      1.0000 0.86010  0.27780  0.20580  Biso   1.000  H
  O21      1.0000 0.71880  0.93850  0.34860  Biso   1.000  O
  O22      1.0000 0.88160  0.22360  0.04340  Biso   1.000  O
  O23      1.0000 0.26730  0.35850  0.01080  Biso   1.000  O
  O24      1.0000 0.04460  0.00330  0.12960  Biso   1.000  O
  Zr4      1.0000 0.99834  0.58923  0.12416  Biso   1.000  Zr
  N7       1.0000 0.85340  0.68530  0.21350  Biso   1.000  N
  N8       1.0000 0.16800  0.69640  0.22330  Biso   1.000  N
  O25      1.0000 0.05360  0.48520  0.22620  Biso   1.000  O
  O26      1.0000 0.20110  0.60630  0.07180  Biso   1.000  O
  O27      1.0000 0.93460  0.72170  0.04850  Biso   1.000  O
  O28      1.0000 0.77270  0.53070  0.09180  Biso   1.000  O
  C31      1.0000 0.94980  0.72030  0.30070  Biso   1.000  C
  C32      1.0000 0.78690  0.78200  0.15830  Biso   1.000  C
  C33      1.0000 0.73290  0.60830  0.22960  Biso   1.000  C
  C34      1.0000 0.09560  0.77250  0.28050  Biso   1.000  C
  C35      1.0000 0.26140  0.61110  0.27850  Biso   1.000  C
  C36      1.0000 0.26210  0.76020  0.16910  Biso   1.000  C
  C37      1.0000 0.17210  0.50360  0.28710  Biso   1.000  C
  C38      1.0000 0.28560  0.69290  0.08920  Biso   1.000  C
  C39      1.0000 0.83000  0.78820  0.06550  Biso   1.000  C
  C40      1.0000 0.67540  0.54350  0.14420  Biso   1.000  C
  H37      1.0000 0.89500  0.77410  0.33130  Biso   1.000  H
  H38      1.0000 0.97380  0.65570  0.33970  Biso   1.000  H
  H39      1.0000 0.67660  0.77820  0.15150  Biso   1.000  H
  H40      1.0000 0.81960  0.85060  0.19060  Biso   1.000  H
  H41      1.0000 0.77270  0.55680  0.27790  Biso   1.000  H
  H42      1.0000 0.64970  0.65020  0.24760  Biso   1.000  H
  H43      1.0000 0.16530  0.78670  0.33650  Biso   1.000  H
  H44      1.0000 0.07250  0.84350  0.24970  Biso   1.000  H
  H45      1.0000 0.34980  0.59370  0.25140  Biso   1.000  H
  H46      1.0000 0.29760  0.64140  0.33820  Biso   1.000  H
  H47      1.0000 0.21160  0.83010  0.14910  Biso   1.000  H
  H48      1.0000 0.36010  0.77780  0.20580  Biso   1.000  H
  O29      1.0000 0.21880  0.43850  0.34860  Biso   1.000  O
  O30      1.0000 0.38160  0.72360  0.04340  Biso   1.000  O
  O31      1.0000 0.76730  0.85850  0.01080  Biso   1.000  O
  O32      1.0000 0.54460  0.50330  0.12960  Biso   1.000  O
