data_image0
_cell_length_a       15.795
_cell_length_b       6.8256
_cell_length_c       8.1755
_cell_angle_alpha    90
_cell_angle_beta     77.004
_cell_angle_gamma    90

_symmetry_space_group_name_H-M    "P 1"
_symmetry_int_tables_number       1

loop_
  _symmetry_equiv_pos_as_xyz
  'x, y, z'

loop_
  _atom_site_label
  _atom_site_occupancy
  _atom_site_fract_x
  _atom_site_fract_y
  _atom_site_fract_z
  _atom_site_thermal_displace_type
  _atom_site_B_iso_or_equiv
  _atom_site_type_symbol
  O1       1.0000 0.09320  0.32820  0.87180  Biso   1.000  O
  O2       1.0000 0.15599  0.23090  0.07650  Biso   1.000  O
  C1       1.0000 0.35610  0.18740  0.89670  Biso   1.000  C
  C2       1.0000 0.42880  0.08470  0.95100  Biso   1.000  C
  O3       1.0000 0.35264  0.36720  0.89290  Biso   1.000  O
  N1       1.0000 0.29604  0.07430  0.85070  Biso   1.000  N
  H1       1.0000 0.30030  0.94900  0.85680  Biso   1.000  H
  C3       1.0000 0.15313  0.24420  0.92800  Biso   1.000  C
  C4       1.0000 0.22457  0.15710  0.79130  Biso   1.000  C
  H2       1.0000 0.19950  0.05570  0.73370  Biso   1.000  H
  H3       1.0000 0.24690  0.25860  0.71000  Biso   1.000  H
  C5       1.0000 0.49130  0.19840  0.99660  Biso   1.000  C
  H4       1.0000 0.48620  0.33410  0.99450  Biso   1.000  H
  C6       1.0000 0.43830  0.88420  0.95440  Biso   1.000  C
  H5       1.0000 0.39700  0.80370  0.92350  Biso   1.000  H
  O4       1.0000 0.90680  0.67180  0.12820  Biso   1.000  O
  O5       1.0000 0.84401  0.76910  0.92350  Biso   1.000  O
  C7       1.0000 0.64390  0.81260  0.10330  Biso   1.000  C
  C8       1.0000 0.57120  0.91530  0.04900  Biso   1.000  C
  O6       1.0000 0.64736  0.63280  0.10710  Biso   1.000  O
  N2       1.0000 0.70396  0.92570  0.14930  Biso   1.000  N
  H6       1.0000 0.69970  0.05100  0.14320  Biso   1.000  H
  C9       1.0000 0.84687  0.75580  0.07200  Biso   1.000  C
  C10      1.0000 0.77543  0.84290  0.20870  Biso   1.000  C
  H7       1.0000 0.80050  0.94430  0.26630  Biso   1.000  H
  H8       1.0000 0.75310  0.74140  0.29000  Biso   1.000  H
  C11      1.0000 0.50870  0.80160  0.00340  Biso   1.000  C
  H9       1.0000 0.51380  0.66590  0.00550  Biso   1.000  H
  C12      1.0000 0.56170  0.11580  0.04560  Biso   1.000  C
  H10      1.0000 0.60300  0.19630  0.07650  Biso   1.000  H
  Cu1      1.0000 0.00000  0.50000  0.00000  Biso   1.000  Cu
  O7       1.0000 0.90680  0.32820  0.62820  Biso   1.000  O
  O8       1.0000 0.84401  0.23090  0.42350  Biso   1.000  O
  C13      1.0000 0.64390  0.18740  0.60330  Biso   1.000  C
  C14      1.0000 0.57120  0.08470  0.54900  Biso   1.000  C
  O9       1.0000 0.64736  0.36720  0.60710  Biso   1.000  O
  N3       1.0000 0.70396  0.07430  0.64930  Biso   1.000  N
  H11      1.0000 0.69970  0.94900  0.64320  Biso   1.000  H
  C15      1.0000 0.84687  0.24420  0.57200  Biso   1.000  C
  C16      1.0000 0.77543  0.15710  0.70870  Biso   1.000  C
  H12      1.0000 0.80050  0.05570  0.76630  Biso   1.000  H
  H13      1.0000 0.75310  0.25860  0.79000  Biso   1.000  H
  C17      1.0000 0.50870  0.19840  0.50340  Biso   1.000  C
  H14      1.0000 0.51380  0.33410  0.50550  Biso   1.000  H
  C18      1.0000 0.56170  0.88420  0.54560  Biso   1.000  C
  H15      1.0000 0.60300  0.80370  0.57650  Biso   1.000  H
  O10      1.0000 0.09320  0.67180  0.37180  Biso   1.000  O
  O11      1.0000 0.15599  0.76910  0.57650  Biso   1.000  O
  C19      1.0000 0.35610  0.81260  0.39670  Biso   1.000  C
  C20      1.0000 0.42880  0.91530  0.45100  Biso   1.000  C
  O12      1.0000 0.35264  0.63280  0.39290  Biso   1.000  O
  N4       1.0000 0.29604  0.92570  0.35070  Biso   1.000  N
  H16      1.0000 0.30030  0.05100  0.35680  Biso   1.000  H
  C21      1.0000 0.15313  0.75580  0.42800  Biso   1.000  C
  C22      1.0000 0.22457  0.84290  0.29130  Biso   1.000  C
  H17      1.0000 0.19950  0.94430  0.23370  Biso   1.000  H
  H18      1.0000 0.24690  0.74140  0.21000  Biso   1.000  H
  C23      1.0000 0.49130  0.80160  0.49660  Biso   1.000  C
  H19      1.0000 0.48620  0.66590  0.49450  Biso   1.000  H
  C24      1.0000 0.43830  0.11580  0.45440  Biso   1.000  C
  H20      1.0000 0.39700  0.19630  0.42350  Biso   1.000  H
  Cu2      1.0000 0.00000  0.50000  0.50000  Biso   1.000  Cu
