data_image0
_cell_length_a       22.475
_cell_length_b       7.3733
_cell_length_c       22.745
_cell_angle_alpha    90
_cell_angle_beta     102.672
_cell_angle_gamma    90

_symmetry_space_group_name_H-M    "P 1"
_symmetry_int_tables_number       1

loop_
  _symmetry_equiv_pos_as_xyz
  'x, y, z'

loop_
  _atom_site_label
  _atom_site_occupancy
  _atom_site_fract_x
  _atom_site_fract_y
  _atom_site_fract_z
  _atom_site_thermal_displace_type
  _atom_site_B_iso_or_equiv
  _atom_site_type_symbol
  Ag1      1.0000 0.59320  0.36549  0.62000  Biso   1.000  Ag
  Cd1      1.0000 0.80306  0.03461  0.60820  Biso   1.000  Cd
  Cd2      1.0000 0.39141  0.63219  0.69629  Biso   1.000  Cd
  C1       1.0000 0.82300  0.78800  0.72880  Biso   1.000  C
  C2       1.0000 0.85030  0.67400  0.68360  Biso   1.000  C
  H1       1.0000 0.83290  0.56030  0.66790  Biso   1.000  H
  H2       1.0000 0.88760  0.64640  0.71190  Biso   1.000  H
  C3       1.0000 0.94190  0.01180  0.68120  Biso   1.000  C
  C4       1.0000 0.93000  0.84400  0.64860  Biso   1.000  C
  H3       1.0000 0.95460  0.76410  0.67730  Biso   1.000  H
  H4       1.0000 0.94440  0.83340  0.61200  Biso   1.000  H
  C5       1.0000 0.79390  0.64880  0.54490  Biso   1.000  C
  H5       1.0000 0.77060  0.57730  0.56700  Biso   1.000  H
  H6       1.0000 0.79300  0.58830  0.50730  Biso   1.000  H
  C6       1.0000 0.85710  0.65630  0.58140  Biso   1.000  C
  H7       1.0000 0.88190  0.70470  0.55570  Biso   1.000  H
  H8       1.0000 0.87100  0.53530  0.59230  Biso   1.000  H
  C7       1.0000 0.30080  0.95500  0.69930  Biso   1.000  C
  H9       1.0000 0.25880  0.99110  0.69180  Biso   1.000  H
  H10      1.0000 0.32230  0.03230  0.73100  Biso   1.000  H
  C8       1.0000 0.32030  0.00000  0.64860  Biso   1.000  C
  H11      1.0000 0.33500  0.12290  0.65290  Biso   1.000  H
  H12      1.0000 0.28620  0.99760  0.61480  Biso   1.000  H
  C9       1.0000 0.31070  0.66430  0.56540  Biso   1.000  C
  H13      1.0000 0.30670  0.61440  0.52580  Biso   1.000  H
  H14      1.0000 0.27090  0.70020  0.56990  Biso   1.000  H
  C10      1.0000 0.35000  0.81580  0.56960  Biso   1.000  C
  H15      1.0000 0.33010  0.90670  0.54190  Biso   1.000  H
  H16      1.0000 0.38700  0.78320  0.55780  Biso   1.000  H
  C11      1.0000 0.46330  0.00980  0.70170  Biso   1.000  C
  H17      1.0000 0.44220  0.08470  0.72500  Biso   1.000  H
  H18      1.0000 0.50200  0.06530  0.70190  Biso   1.000  H
  C12      1.0000 0.42550  0.00040  0.63880  Biso   1.000  C
  H19      1.0000 0.44860  0.93700  0.61450  Biso   1.000  H
  H20      1.0000 0.41770  0.12070  0.62280  Biso   1.000  H
  C13      1.0000 0.67750  0.27780  0.60930  Biso   1.000  C
  C14      1.0000 0.38600  0.35360  0.81420  Biso   1.000  C
  C15      1.0000 0.51470  0.43540  0.64610  Biso   1.000  C
  N1       1.0000 0.78130  0.91350  0.69880  Biso   1.000  N
  H21      1.0000 0.74090  0.89420  0.69320  Biso   1.000  H
  H22      1.0000 0.79210  0.99550  0.72860  Biso   1.000  H
  N2       1.0000 0.89630  0.14830  0.65550  Biso   1.000  N
  H23      1.0000 0.89280  0.20090  0.69030  Biso   1.000  H
  H24      1.0000 0.90760  0.23440  0.63210  Biso   1.000  H
  N3       1.0000 0.76530  0.82470  0.53270  Biso   1.000  N
  H25      1.0000 0.77150  0.86650  0.49730  Biso   1.000  H
  H26      1.0000 0.72480  0.81330  0.52930  Biso   1.000  H
  N4       1.0000 0.86820  0.76810  0.63560  Biso   1.000  N
  N5       1.0000 0.72360  0.22650  0.60420  Biso   1.000  N
  N6       1.0000 0.33260  0.53020  0.60640  Biso   1.000  N
  H27      1.0000 0.30080  0.46780  0.61440  Biso   1.000  H
  H28      1.0000 0.35510  0.45210  0.59000  Biso   1.000  H
  N7       1.0000 0.47220  0.83230  0.73060  Biso   1.000  N
  H29      1.0000 0.50650  0.78460  0.72270  Biso   1.000  H
  H30      1.0000 0.47770  0.84380  0.77080  Biso   1.000  H
  N8       1.0000 0.30610  0.76910  0.72530  Biso   1.000  N
  H31      1.0000 0.31170  0.77200  0.76570  Biso   1.000  H
  H32      1.0000 0.27170  0.70700  0.71000  Biso   1.000  H
  N9       1.0000 0.36680  0.90560  0.63440  Biso   1.000  N
  N10      1.0000 0.39220  0.42070  0.77030  Biso   1.000  N
  N11      1.0000 0.47220  0.47760  0.66280  Biso   1.000  N
  C16      1.0000 0.80270  0.71700  0.70800  Biso   1.000  C
  C17      1.0000 0.94360  0.00800  0.65020  Biso   1.000  C
  Ag2      1.0000 0.62619  0.72840  0.10292  Biso   1.000  Ag
  Ag3      1.0000 0.59277  0.31947  0.06675  Biso   1.000  Ag
  C18      1.0000 0.66960  0.18490  0.11160  Biso   1.000  C
  C19      1.0000 0.51980  0.46030  0.01390  Biso   1.000  C
  C20      1.0000 0.65090  0.72030  0.02020  Biso   1.000  C
  N12      1.0000 0.66660  0.69020  0.97710  Biso   1.000  N
  N13      1.0000 0.71090  0.10350  0.13710  Biso   1.000  N
  Ag4      1.0000 0.40680  0.63451  0.38000  Biso   1.000  Ag
  Cd3      1.0000 0.19694  0.96539  0.39180  Biso   1.000  Cd
  Cd4      1.0000 0.60859  0.36781  0.30371  Biso   1.000  Cd
  C21      1.0000 0.17700  0.21200  0.27120  Biso   1.000  C
  C22      1.0000 0.14970  0.32600  0.31640  Biso   1.000  C
  H33      1.0000 0.16710  0.43970  0.33210  Biso   1.000  H
  H34      1.0000 0.11240  0.35360  0.28810  Biso   1.000  H
  C23      1.0000 0.05810  0.98820  0.31880  Biso   1.000  C
  C24      1.0000 0.07000  0.15600  0.35140  Biso   1.000  C
  H35      1.0000 0.04540  0.23590  0.32270  Biso   1.000  H
  H36      1.0000 0.05560  0.16660  0.38800  Biso   1.000  H
  C25      1.0000 0.20610  0.35120  0.45510  Biso   1.000  C
  H37      1.0000 0.22940  0.42270  0.43300  Biso   1.000  H
  H38      1.0000 0.20700  0.41170  0.49270  Biso   1.000  H
  C26      1.0000 0.14290  0.34370  0.41860  Biso   1.000  C
  H39      1.0000 0.11810  0.29530  0.44430  Biso   1.000  H
  H40      1.0000 0.12900  0.46470  0.40770  Biso   1.000  H
  C27      1.0000 0.69920  0.04500  0.30070  Biso   1.000  C
  H41      1.0000 0.74120  0.00890  0.30820  Biso   1.000  H
  H42      1.0000 0.67770  0.96770  0.26900  Biso   1.000  H
  C28      1.0000 0.67970  0.00000  0.35140  Biso   1.000  C
  H43      1.0000 0.66500  0.87710  0.34710  Biso   1.000  H
  H44      1.0000 0.71380  0.00240  0.38520  Biso   1.000  H
  C29      1.0000 0.68930  0.33570  0.43460  Biso   1.000  C
  H45      1.0000 0.69330  0.38560  0.47420  Biso   1.000  H
  H46      1.0000 0.72910  0.29980  0.43010  Biso   1.000  H
  C30      1.0000 0.65000  0.18420  0.43040  Biso   1.000  C
  H47      1.0000 0.66990  0.09330  0.45810  Biso   1.000  H
  H48      1.0000 0.61300  0.21680  0.44220  Biso   1.000  H
  C31      1.0000 0.53670  0.99020  0.29830  Biso   1.000  C
  H49      1.0000 0.55780  0.91530  0.27500  Biso   1.000  H
  H50      1.0000 0.49800  0.93470  0.29810  Biso   1.000  H
  C32      1.0000 0.57450  0.99960  0.36120  Biso   1.000  C
  H51      1.0000 0.55140  0.06300  0.38550  Biso   1.000  H
  H52      1.0000 0.58230  0.87930  0.37720  Biso   1.000  H
  C33      1.0000 0.32250  0.72220  0.39070  Biso   1.000  C
  C34      1.0000 0.61400  0.64640  0.18580  Biso   1.000  C
  C35      1.0000 0.48530  0.56460  0.35390  Biso   1.000  C
  N14      1.0000 0.21870  0.08650  0.30120  Biso   1.000  N
  H53      1.0000 0.25910  0.10580  0.30680  Biso   1.000  H
  H54      1.0000 0.20790  0.00450  0.27140  Biso   1.000  H
  N15      1.0000 0.10370  0.85170  0.34450  Biso   1.000  N
  H55      1.0000 0.10720  0.79910  0.30970  Biso   1.000  H
  H56      1.0000 0.09240  0.76560  0.36790  Biso   1.000  H
  N16      1.0000 0.23470  0.17530  0.46730  Biso   1.000  N
  H57      1.0000 0.22850  0.13350  0.50270  Biso   1.000  H
  H58      1.0000 0.27520  0.18670  0.47070  Biso   1.000  H
  N17      1.0000 0.13180  0.23190  0.36440  Biso   1.000  N
  N18      1.0000 0.27640  0.77350  0.39580  Biso   1.000  N
  N19      1.0000 0.66740  0.46980  0.39360  Biso   1.000  N
  H59      1.0000 0.69920  0.53220  0.38560  Biso   1.000  H
  H60      1.0000 0.64490  0.54790  0.41000  Biso   1.000  H
  N20      1.0000 0.52780  0.16770  0.26940  Biso   1.000  N
  H61      1.0000 0.49350  0.21540  0.27730  Biso   1.000  H
  H62      1.0000 0.52230  0.15620  0.22920  Biso   1.000  H
  N21      1.0000 0.69390  0.23090  0.27470  Biso   1.000  N
  H63      1.0000 0.68830  0.22800  0.23430  Biso   1.000  H
  H64      1.0000 0.72830  0.29300  0.29000  Biso   1.000  H
  N22      1.0000 0.63320  0.09440  0.36560  Biso   1.000  N
  N23      1.0000 0.60780  0.57930  0.22970  Biso   1.000  N
  N24      1.0000 0.52780  0.52240  0.33720  Biso   1.000  N
  C36      1.0000 0.19730  0.28300  0.29200  Biso   1.000  C
  C37      1.0000 0.05640  0.99200  0.34980  Biso   1.000  C
  Ag5      1.0000 0.37381  0.27160  0.89708  Biso   1.000  Ag
  Ag6      1.0000 0.40723  0.68053  0.93325  Biso   1.000  Ag
  C38      1.0000 0.33040  0.81510  0.88840  Biso   1.000  C
  C39      1.0000 0.48020  0.53970  0.98610  Biso   1.000  C
  C40      1.0000 0.34910  0.27970  0.97980  Biso   1.000  C
  N25      1.0000 0.33340  0.30980  0.02290  Biso   1.000  N
  N26      1.0000 0.28910  0.89650  0.86290  Biso   1.000  N
  Ag7      1.0000 0.87381  0.22840  0.39708  Biso   1.000  Ag
  Ag8      1.0000 0.90723  0.81947  0.43325  Biso   1.000  Ag
  C41      1.0000 0.83040  0.68490  0.38840  Biso   1.000  C
  C42      1.0000 0.98020  0.96030  0.48610  Biso   1.000  C
  C43      1.0000 0.84910  0.22030  0.47980  Biso   1.000  C
  N27      1.0000 0.83340  0.19020  0.52290  Biso   1.000  N
  N28      1.0000 0.78910  0.60350  0.36290  Biso   1.000  N
  Ag9      1.0000 0.90680  0.86549  0.88000  Biso   1.000  Ag
  Cd5      1.0000 0.69694  0.53461  0.89180  Biso   1.000  Cd
  Cd6      1.0000 0.10859  0.13219  0.80371  Biso   1.000  Cd
  C44      1.0000 0.67700  0.28800  0.77120  Biso   1.000  C
  C45      1.0000 0.64970  0.17400  0.81640  Biso   1.000  C
  H65      1.0000 0.66710  0.06030  0.83210  Biso   1.000  H
  H66      1.0000 0.61240  0.14640  0.78810  Biso   1.000  H
  C46      1.0000 0.55810  0.51180  0.81880  Biso   1.000  C
  C47      1.0000 0.57000  0.34400  0.85140  Biso   1.000  C
  H67      1.0000 0.54540  0.26410  0.82270  Biso   1.000  H
  H68      1.0000 0.55560  0.33340  0.88800  Biso   1.000  H
  C48      1.0000 0.70610  0.14880  0.95510  Biso   1.000  C
  H69      1.0000 0.72940  0.07730  0.93300  Biso   1.000  H
  H70      1.0000 0.70700  0.08830  0.99270  Biso   1.000  H
  C49      1.0000 0.64290  0.15630  0.91860  Biso   1.000  C
  H71      1.0000 0.61810  0.20470  0.94430  Biso   1.000  H
  H72      1.0000 0.62900  0.03530  0.90770  Biso   1.000  H
  C50      1.0000 0.19920  0.45500  0.80070  Biso   1.000  C
  H73      1.0000 0.24120  0.49110  0.80820  Biso   1.000  H
  H74      1.0000 0.17770  0.53230  0.76900  Biso   1.000  H
  C51      1.0000 0.17970  0.50000  0.85140  Biso   1.000  C
  H75      1.0000 0.16500  0.62290  0.84710  Biso   1.000  H
  H76      1.0000 0.21380  0.49760  0.88520  Biso   1.000  H
  C52      1.0000 0.18930  0.16430  0.93460  Biso   1.000  C
  H77      1.0000 0.19330  0.11440  0.97420  Biso   1.000  H
  H78      1.0000 0.22910  0.20020  0.93010  Biso   1.000  H
  C53      1.0000 0.15000  0.31580  0.93040  Biso   1.000  C
  H79      1.0000 0.16990  0.40670  0.95810  Biso   1.000  H
  H80      1.0000 0.11300  0.28320  0.94220  Biso   1.000  H
  C54      1.0000 0.03670  0.50980  0.79830  Biso   1.000  C
  H81      1.0000 0.05780  0.58470  0.77500  Biso   1.000  H
  H82      1.0000 0.99800  0.56530  0.79810  Biso   1.000  H
  C55      1.0000 0.07450  0.50040  0.86120  Biso   1.000  C
  H83      1.0000 0.05140  0.43700  0.88550  Biso   1.000  H
  H84      1.0000 0.08230  0.62070  0.87720  Biso   1.000  H
  C56      1.0000 0.82250  0.77780  0.89070  Biso   1.000  C
  C57      1.0000 0.11400  0.85360  0.68580  Biso   1.000  C
  C58      1.0000 0.98530  0.93540  0.85390  Biso   1.000  C
  N29      1.0000 0.71870  0.41350  0.80120  Biso   1.000  N
  H85      1.0000 0.75910  0.39420  0.80680  Biso   1.000  H
  H86      1.0000 0.70790  0.49550  0.77140  Biso   1.000  H
  N30      1.0000 0.60370  0.64830  0.84450  Biso   1.000  N
  H87      1.0000 0.60720  0.70090  0.80970  Biso   1.000  H
  H88      1.0000 0.59240  0.73440  0.86790  Biso   1.000  H
  N31      1.0000 0.73470  0.32470  0.96730  Biso   1.000  N
  H89      1.0000 0.72850  0.36650  0.00270  Biso   1.000  H
  H90      1.0000 0.77520  0.31330  0.97070  Biso   1.000  H
  N32      1.0000 0.63180  0.26810  0.86440  Biso   1.000  N
  N33      1.0000 0.77640  0.72650  0.89580  Biso   1.000  N
  N34      1.0000 0.16740  0.03020  0.89360  Biso   1.000  N
  H91      1.0000 0.19920  0.96780  0.88560  Biso   1.000  H
  H92      1.0000 0.14490  0.95210  0.91000  Biso   1.000  H
  N35      1.0000 0.02780  0.33230  0.76940  Biso   1.000  N
  H93      1.0000 0.99350  0.28460  0.77730  Biso   1.000  H
  H94      1.0000 0.02230  0.34380  0.72920  Biso   1.000  H
  N36      1.0000 0.19390  0.26910  0.77470  Biso   1.000  N
  H95      1.0000 0.18830  0.27200  0.73430  Biso   1.000  H
  H96      1.0000 0.22830  0.20700  0.79000  Biso   1.000  H
  N37      1.0000 0.13320  0.40560  0.86560  Biso   1.000  N
  N38      1.0000 0.10780  0.92070  0.72970  Biso   1.000  N
  N39      1.0000 0.02780  0.97760  0.83720  Biso   1.000  N
  C59      1.0000 0.69730  0.21700  0.79200  Biso   1.000  C
  C60      1.0000 0.55640  0.50800  0.84980  Biso   1.000  C
  Ag10     1.0000 0.12619  0.77160  0.60292  Biso   1.000  Ag
  Ag11     1.0000 0.09277  0.18053  0.56675  Biso   1.000  Ag
  C61      1.0000 0.16960  0.31510  0.61160  Biso   1.000  C
  C62      1.0000 0.01980  0.03970  0.51390  Biso   1.000  C
  C63      1.0000 0.15090  0.77970  0.52020  Biso   1.000  C
  N40      1.0000 0.16660  0.80980  0.47710  Biso   1.000  N
  N41      1.0000 0.21090  0.39650  0.63710  Biso   1.000  N
  Ag12     1.0000 0.09320  0.13451  0.12000  Biso   1.000  Ag
  Cd7      1.0000 0.30306  0.46539  0.10820  Biso   1.000  Cd
  Cd8      1.0000 0.89141  0.86781  0.19629  Biso   1.000  Cd
  C64      1.0000 0.32300  0.71200  0.22880  Biso   1.000  C
  C65      1.0000 0.35030  0.82600  0.18360  Biso   1.000  C
  H97      1.0000 0.33290  0.93970  0.16790  Biso   1.000  H
  H98      1.0000 0.38760  0.85360  0.21190  Biso   1.000  H
  C66      1.0000 0.44190  0.48820  0.18120  Biso   1.000  C
  C67      1.0000 0.43000  0.65600  0.14860  Biso   1.000  C
  H99      1.0000 0.45460  0.73590  0.17730  Biso   1.000  H
  H100     1.0000 0.44440  0.66660  0.11200  Biso   1.000  H
  C68      1.0000 0.29390  0.85120  0.04490  Biso   1.000  C
  H101     1.0000 0.27060  0.92270  0.06700  Biso   1.000  H
  H102     1.0000 0.29300  0.91170  0.00730  Biso   1.000  H
  C69      1.0000 0.35710  0.84370  0.08140  Biso   1.000  C
  H103     1.0000 0.38190  0.79530  0.05570  Biso   1.000  H
  H104     1.0000 0.37100  0.96470  0.09230  Biso   1.000  H
  C70      1.0000 0.80080  0.54500  0.19930  Biso   1.000  C
  H105     1.0000 0.75880  0.50890  0.19180  Biso   1.000  H
  H106     1.0000 0.82230  0.46770  0.23100  Biso   1.000  H
  C71      1.0000 0.82030  0.50000  0.14860  Biso   1.000  C
  H107     1.0000 0.83500  0.37710  0.15290  Biso   1.000  H
  H108     1.0000 0.78620  0.50240  0.11480  Biso   1.000  H
  C72      1.0000 0.81070  0.83570  0.06540  Biso   1.000  C
  H109     1.0000 0.80670  0.88560  0.02580  Biso   1.000  H
  H110     1.0000 0.77090  0.79980  0.06990  Biso   1.000  H
  C73      1.0000 0.85000  0.68420  0.06960  Biso   1.000  C
  H111     1.0000 0.83010  0.59330  0.04190  Biso   1.000  H
  H112     1.0000 0.88700  0.71680  0.05780  Biso   1.000  H
  C74      1.0000 0.96330  0.49020  0.20170  Biso   1.000  C
  H113     1.0000 0.94220  0.41530  0.22500  Biso   1.000  H
  H114     1.0000 0.00200  0.43470  0.20190  Biso   1.000  H
  C75      1.0000 0.92550  0.49960  0.13880  Biso   1.000  C
  H115     1.0000 0.94860  0.56300  0.11450  Biso   1.000  H
  H116     1.0000 0.91770  0.37930  0.12280  Biso   1.000  H
  C76      1.0000 0.17750  0.22220  0.10930  Biso   1.000  C
  C77      1.0000 0.88600  0.14640  0.31420  Biso   1.000  C
  C78      1.0000 0.01470  0.06460  0.14610  Biso   1.000  C
  N42      1.0000 0.28130  0.58650  0.19880  Biso   1.000  N
  H117     1.0000 0.24090  0.60580  0.19320  Biso   1.000  H
  H118     1.0000 0.29210  0.50450  0.22860  Biso   1.000  H
  N43      1.0000 0.39630  0.35170  0.15550  Biso   1.000  N
  H119     1.0000 0.39280  0.29910  0.19030  Biso   1.000  H
  H120     1.0000 0.40760  0.26560  0.13210  Biso   1.000  H
  N44      1.0000 0.26530  0.67530  0.03270  Biso   1.000  N
  H121     1.0000 0.27150  0.63350  0.99730  Biso   1.000  H
  H122     1.0000 0.22480  0.68670  0.02930  Biso   1.000  H
  N45      1.0000 0.36820  0.73190  0.13560  Biso   1.000  N
  N46      1.0000 0.22360  0.27350  0.10420  Biso   1.000  N
  N47      1.0000 0.83260  0.96980  0.10640  Biso   1.000  N
  H123     1.0000 0.80080  0.03220  0.11440  Biso   1.000  H
  H124     1.0000 0.85510  0.04790  0.09000  Biso   1.000  H
  N48      1.0000 0.97220  0.66770  0.23060  Biso   1.000  N
  H125     1.0000 0.00650  0.71540  0.22270  Biso   1.000  H
  H126     1.0000 0.97770  0.65620  0.27080  Biso   1.000  H
  N49      1.0000 0.80610  0.73090  0.22530  Biso   1.000  N
  H127     1.0000 0.81170  0.72800  0.26570  Biso   1.000  H
  H128     1.0000 0.77170  0.79300  0.21000  Biso   1.000  H
  N50      1.0000 0.86680  0.59440  0.13440  Biso   1.000  N
  N51      1.0000 0.89220  0.07930  0.27030  Biso   1.000  N
  N52      1.0000 0.97220  0.02240  0.16280  Biso   1.000  N
  C79      1.0000 0.30270  0.78300  0.20800  Biso   1.000  C
  C80      1.0000 0.44360  0.49200  0.15020  Biso   1.000  C
