data_image0
_cell_length_a       29.726
_cell_length_b       9.5736
_cell_length_c       24.757
_cell_angle_alpha    90
_cell_angle_beta     125.289
_cell_angle_gamma    90

_symmetry_space_group_name_H-M    "P 1"
_symmetry_int_tables_number       1

loop_
  _symmetry_equiv_pos_as_xyz
  'x, y, z'

loop_
  _atom_site_label
  _atom_site_occupancy
  _atom_site_fract_x
  _atom_site_fract_y
  _atom_site_fract_z
  _atom_site_thermal_displace_type
  _atom_site_B_iso_or_equiv
  _atom_site_type_symbol
  O1       1.0000 0.79190  0.90131  0.49607  Biso   1.000  O
  C1       1.0000 0.82294  0.12210  0.49450  Biso   1.000  C
  F1       1.0000 0.86235  0.08970  0.54870  Biso   1.000  F
  F2       1.0000 0.83237  0.11040  0.44740  Biso   1.000  F
  F3       1.0000 0.80320  0.24890  0.48870  Biso   1.000  F
  C2       1.0000 0.77558  0.02070  0.47111  Biso   1.000  C
  C3       1.0000 0.72253  0.06880  0.42646  Biso   1.000  C
  H1       1.0000 0.71730  0.16330  0.41230  Biso   1.000  H
  C4       1.0000 0.67627  0.98400  0.40135  Biso   1.000  C
  C5       1.0000 0.61945  0.05060  0.35523  Biso   1.000  C
  F4       1.0000 0.62017  0.17862  0.33538  Biso   1.000  F
  F5       1.0000 0.58780  0.97359  0.30101  Biso   1.000  F
  F6       1.0000 0.59397  0.05730  0.38524  Biso   1.000  F
  O2       1.0000 0.67499  0.85822  0.41213  Biso   1.000  O
  O3       1.0000 0.76640  0.61727  0.45141  Biso   1.000  O
  N1       1.0000 0.75658  0.64500  0.39411  Biso   1.000  N
  C6       1.0000 0.70909  0.58050  0.33178  Biso   1.000  C
  C7       1.0000 0.72542  0.42900  0.33319  Biso   1.000  C
  H2       1.0000 0.72440  0.37750  0.36670  Biso   1.000  H
  H3       1.0000 0.69960  0.38650  0.28970  Biso   1.000  H
  H4       1.0000 0.76280  0.42560  0.34410  Biso   1.000  H
  C8       1.0000 0.65676  0.58760  0.32872  Biso   1.000  C
  H5       1.0000 0.66040  0.52720  0.36300  Biso   1.000  H
  H6       1.0000 0.65050  0.68410  0.33600  Biso   1.000  H
  H7       1.0000 0.62550  0.55600  0.28510  Biso   1.000  H
  C9       1.0000 0.70950  0.67140  0.28027  Biso   1.000  C
  C10      1.0000 0.67922  0.80960  0.26573  Biso   1.000  C
  H8       1.0000 0.68090  0.86180  0.23290  Biso   1.000  H
  H9       1.0000 0.64060  0.79160  0.24840  Biso   1.000  H
  H10      1.0000 0.69660  0.86440  0.30660  Biso   1.000  H
  C11      1.0000 0.69198  0.59730  0.21695  Biso   1.000  C
  H11      1.0000 0.69350  0.66260  0.18760  Biso   1.000  H
  H12      1.0000 0.71680  0.51860  0.22730  Biso   1.000  H
  H13      1.0000 0.65420  0.56260  0.19490  Biso   1.000  H
  N2       1.0000 0.76955  0.70700  0.31968  Biso   1.000  N
  O4       1.0000 0.79289  0.75244  0.29362  Biso   1.000  O
  C12      1.0000 0.79298  0.70160  0.38540  Biso   1.000  C
  C13      1.0000 0.84718  0.74760  0.43614  Biso   1.000  C
  C14      1.0000 0.88427  0.82590  0.43035  Biso   1.000  C
  H14      1.0000 0.87720  0.85590  0.38950  Biso   1.000  H
  N3       1.0000 0.93004  0.85250  0.48868  Biso   1.000  N
  N4       1.0000 0.92272  0.79080  0.53288  Biso   1.000  N
  C15      1.0000 0.95970  0.82740  0.61060  Biso   1.000  C
  H15      1.0000 0.94230  0.78890  0.63150  Biso   1.000  H
  H16      1.0000 0.96280  0.92990  0.61690  Biso   1.000  H
  C16      1.0000 0.01593  0.76430  0.64180  Biso   1.000  C
  H17      1.0000 0.03900  0.78600  0.68970  Biso   1.000  H
  H18      1.0000 0.03360  0.80750  0.62210  Biso   1.000  H
  C17      1.0000 0.01405  0.60850  0.63280  Biso   1.000  C
  H19      1.0000 0.05170  0.57220  0.65560  Biso   1.000  H
  H20      1.0000 0.99590  0.56520  0.65140  Biso   1.000  H
  H21      1.0000 0.99330  0.58650  0.58560  Biso   1.000  H
  C18      1.0000 0.87426  0.72760  0.50329  Biso   1.000  C
  H22      1.0000 0.86070  0.67790  0.52440  Biso   1.000  H
  F7       1.0000 0.85690  0.13830  0.56500  Biso   1.000  F
  F8       1.0000 0.86307  0.08240  0.48670  Biso   1.000  F
  F9       1.0000 0.81370  0.25670  0.47650  Biso   1.000  F
  C19      1.0000 0.53160  0.72560  0.40310  Biso   1.000  C
  H23      1.0000 0.52390  0.82570  0.39110  Biso   1.000  H
  H24      1.0000 0.49880  0.68180  0.39690  Biso   1.000  H
  C20      1.0000 0.54740  0.65210  0.36230  Biso   1.000  C
  H25      1.0000 0.55290  0.55130  0.37340  Biso   1.000  H
  H26      1.0000 0.58250  0.69090  0.37280  Biso   1.000  H
  C21      1.0000 0.50220  0.67080  0.28860  Biso   1.000  C
  H27      1.0000 0.51370  0.62670  0.26260  Biso   1.000  H
  H28      1.0000 0.49590  0.77070  0.27810  Biso   1.000  H
  H29      1.0000 0.46810  0.62710  0.27770  Biso   1.000  H
  O5       1.0000 0.20810  0.90131  0.00393  Biso   1.000  O
  C22      1.0000 0.17706  0.12210  0.00550  Biso   1.000  C
  F10      1.0000 0.13765  0.08970  0.95130  Biso   1.000  F
  F11      1.0000 0.16763  0.11040  0.05260  Biso   1.000  F
  F12      1.0000 0.19680  0.24890  0.01130  Biso   1.000  F
  C23      1.0000 0.22442  0.02070  0.02889  Biso   1.000  C
  C24      1.0000 0.27747  0.06880  0.07354  Biso   1.000  C
  H30      1.0000 0.28270  0.16330  0.08770  Biso   1.000  H
  C25      1.0000 0.32373  0.98400  0.09865  Biso   1.000  C
  C26      1.0000 0.38055  0.05060  0.14477  Biso   1.000  C
  F13      1.0000 0.37983  0.17862  0.16462  Biso   1.000  F
  F14      1.0000 0.41220  0.97359  0.19899  Biso   1.000  F
  F15      1.0000 0.40603  0.05730  0.11476  Biso   1.000  F
  O6       1.0000 0.32501  0.85822  0.08787  Biso   1.000  O
  O7       1.0000 0.23360  0.61727  0.04859  Biso   1.000  O
  N5       1.0000 0.24342  0.64500  0.10589  Biso   1.000  N
  C27      1.0000 0.29091  0.58050  0.16822  Biso   1.000  C
  C28      1.0000 0.27458  0.42900  0.16681  Biso   1.000  C
  H31      1.0000 0.27560  0.37750  0.13330  Biso   1.000  H
  H32      1.0000 0.30040  0.38650  0.21030  Biso   1.000  H
  H33      1.0000 0.23720  0.42560  0.15590  Biso   1.000  H
  C29      1.0000 0.34324  0.58760  0.17128  Biso   1.000  C
  H34      1.0000 0.33960  0.52720  0.13700  Biso   1.000  H
  H35      1.0000 0.34950  0.68410  0.16400  Biso   1.000  H
  H36      1.0000 0.37450  0.55600  0.21490  Biso   1.000  H
  C30      1.0000 0.29050  0.67140  0.21973  Biso   1.000  C
  C31      1.0000 0.32078  0.80960  0.23427  Biso   1.000  C
  H37      1.0000 0.31910  0.86180  0.26710  Biso   1.000  H
  H38      1.0000 0.35940  0.79160  0.25160  Biso   1.000  H
  H39      1.0000 0.30340  0.86440  0.19340  Biso   1.000  H
  C32      1.0000 0.30802  0.59730  0.28305  Biso   1.000  C
  H40      1.0000 0.30650  0.66260  0.31240  Biso   1.000  H
  H41      1.0000 0.28320  0.51860  0.27270  Biso   1.000  H
  H42      1.0000 0.34580  0.56260  0.30510  Biso   1.000  H
  N6       1.0000 0.23045  0.70700  0.18032  Biso   1.000  N
  O8       1.0000 0.20711  0.75244  0.20638  Biso   1.000  O
  C33      1.0000 0.20702  0.70160  0.11460  Biso   1.000  C
  C34      1.0000 0.15282  0.74760  0.06386  Biso   1.000  C
  C35      1.0000 0.11573  0.82590  0.06965  Biso   1.000  C
  H43      1.0000 0.12280  0.85590  0.11050  Biso   1.000  H
  N7       1.0000 0.06996  0.85250  0.01132  Biso   1.000  N
  N8       1.0000 0.07728  0.79080  0.96712  Biso   1.000  N
  C36      1.0000 0.04030  0.82740  0.88940  Biso   1.000  C
  H44      1.0000 0.05770  0.78890  0.86850  Biso   1.000  H
  H45      1.0000 0.03720  0.92990  0.88310  Biso   1.000  H
  C37      1.0000 0.98407  0.76430  0.85820  Biso   1.000  C
  H46      1.0000 0.96100  0.78600  0.81030  Biso   1.000  H
  H47      1.0000 0.96640  0.80750  0.87790  Biso   1.000  H
  C38      1.0000 0.98595  0.60850  0.86720  Biso   1.000  C
  H48      1.0000 0.94830  0.57220  0.84440  Biso   1.000  H
  H49      1.0000 0.00410  0.56520  0.84860  Biso   1.000  H
  H50      1.0000 0.00670  0.58650  0.91440  Biso   1.000  H
  C39      1.0000 0.12574  0.72760  0.99671  Biso   1.000  C
  H51      1.0000 0.13930  0.67790  0.97560  Biso   1.000  H
  F16      1.0000 0.14310  0.13830  0.93500  Biso   1.000  F
  F17      1.0000 0.13693  0.08240  0.01330  Biso   1.000  F
  F18      1.0000 0.18630  0.25670  0.02350  Biso   1.000  F
  C40      1.0000 0.46840  0.72560  0.09690  Biso   1.000  C
  H52      1.0000 0.47610  0.82570  0.10890  Biso   1.000  H
  H53      1.0000 0.50120  0.68180  0.10310  Biso   1.000  H
  C41      1.0000 0.45260  0.65210  0.13770  Biso   1.000  C
  H54      1.0000 0.44710  0.55130  0.12660  Biso   1.000  H
  H55      1.0000 0.41750  0.69090  0.12720  Biso   1.000  H
  C42      1.0000 0.49780  0.67080  0.21140  Biso   1.000  C
  H56      1.0000 0.48630  0.62670  0.23740  Biso   1.000  H
  H57      1.0000 0.50410  0.77070  0.22190  Biso   1.000  H
  H58      1.0000 0.53190  0.62710  0.22230  Biso   1.000  H
  O9       1.0000 0.70810  0.59869  0.50393  Biso   1.000  O
  C43      1.0000 0.67706  0.37790  0.50550  Biso   1.000  C
  F19      1.0000 0.63765  0.41030  0.45130  Biso   1.000  F
  F20      1.0000 0.66763  0.38960  0.55260  Biso   1.000  F
  F21      1.0000 0.69680  0.25110  0.51130  Biso   1.000  F
  C44      1.0000 0.72442  0.47930  0.52889  Biso   1.000  C
  C45      1.0000 0.77747  0.43120  0.57354  Biso   1.000  C
  H59      1.0000 0.78270  0.33670  0.58770  Biso   1.000  H
  C46      1.0000 0.82373  0.51600  0.59865  Biso   1.000  C
  C47      1.0000 0.88055  0.44940  0.64477  Biso   1.000  C
  F22      1.0000 0.87983  0.32138  0.66462  Biso   1.000  F
  F23      1.0000 0.91220  0.52641  0.69899  Biso   1.000  F
  F24      1.0000 0.90603  0.44270  0.61476  Biso   1.000  F
  O10      1.0000 0.82501  0.64178  0.58787  Biso   1.000  O
  O11      1.0000 0.73360  0.88273  0.54859  Biso   1.000  O
  N9       1.0000 0.74342  0.85500  0.60589  Biso   1.000  N
  C48      1.0000 0.79091  0.91950  0.66822  Biso   1.000  C
  C49      1.0000 0.77458  0.07100  0.66681  Biso   1.000  C
  H60      1.0000 0.77560  0.12250  0.63330  Biso   1.000  H
  H61      1.0000 0.80040  0.11350  0.71030  Biso   1.000  H
  H62      1.0000 0.73720  0.07440  0.65590  Biso   1.000  H
  C50      1.0000 0.84324  0.91240  0.67128  Biso   1.000  C
  H63      1.0000 0.83960  0.97280  0.63700  Biso   1.000  H
  H64      1.0000 0.84950  0.81590  0.66400  Biso   1.000  H
  H65      1.0000 0.87450  0.94400  0.71490  Biso   1.000  H
  C51      1.0000 0.79050  0.82860  0.71973  Biso   1.000  C
  C52      1.0000 0.82078  0.69040  0.73427  Biso   1.000  C
  H66      1.0000 0.81910  0.63820  0.76710  Biso   1.000  H
  H67      1.0000 0.85940  0.70840  0.75160  Biso   1.000  H
  H68      1.0000 0.80340  0.63560  0.69340  Biso   1.000  H
  C53      1.0000 0.80802  0.90270  0.78305  Biso   1.000  C
  H69      1.0000 0.80650  0.83740  0.81240  Biso   1.000  H
  H70      1.0000 0.78320  0.98140  0.77270  Biso   1.000  H
  H71      1.0000 0.84580  0.93740  0.80510  Biso   1.000  H
  N10      1.0000 0.73045  0.79300  0.68032  Biso   1.000  N
  O12      1.0000 0.70711  0.74756  0.70638  Biso   1.000  O
  C54      1.0000 0.70702  0.79840  0.61460  Biso   1.000  C
  C55      1.0000 0.65282  0.75240  0.56386  Biso   1.000  C
  C56      1.0000 0.61573  0.67410  0.56965  Biso   1.000  C
  H72      1.0000 0.62280  0.64410  0.61050  Biso   1.000  H
  N11      1.0000 0.56996  0.64750  0.51132  Biso   1.000  N
  N12      1.0000 0.57728  0.70920  0.46712  Biso   1.000  N
  C57      1.0000 0.54030  0.67260  0.38940  Biso   1.000  C
  H73      1.0000 0.55770  0.71110  0.36850  Biso   1.000  H
  H74      1.0000 0.53720  0.57010  0.38310  Biso   1.000  H
  C58      1.0000 0.48407  0.73570  0.35820  Biso   1.000  C
  H75      1.0000 0.46100  0.71400  0.31030  Biso   1.000  H
  H76      1.0000 0.46640  0.69250  0.37790  Biso   1.000  H
  C59      1.0000 0.48595  0.89150  0.36720  Biso   1.000  C
  H77      1.0000 0.44830  0.92780  0.34440  Biso   1.000  H
  H78      1.0000 0.50410  0.93480  0.34860  Biso   1.000  H
  H79      1.0000 0.50670  0.91350  0.41440  Biso   1.000  H
  C60      1.0000 0.62574  0.77240  0.49671  Biso   1.000  C
  H80      1.0000 0.63930  0.82210  0.47560  Biso   1.000  H
  F25      1.0000 0.64310  0.36170  0.43500  Biso   1.000  F
  F26      1.0000 0.63693  0.41760  0.51330  Biso   1.000  F
  F27      1.0000 0.68630  0.24330  0.52350  Biso   1.000  F
  C61      1.0000 0.96840  0.77440  0.59690  Biso   1.000  C
  H81      1.0000 0.97610  0.67430  0.60890  Biso   1.000  H
  H82      1.0000 0.00120  0.81820  0.60310  Biso   1.000  H
  C62      1.0000 0.95260  0.84790  0.63770  Biso   1.000  C
  H83      1.0000 0.94710  0.94870  0.62660  Biso   1.000  H
  H84      1.0000 0.91750  0.80910  0.62720  Biso   1.000  H
  C63      1.0000 0.99780  0.82920  0.71140  Biso   1.000  C
  H85      1.0000 0.98630  0.87330  0.73740  Biso   1.000  H
  H86      1.0000 0.00410  0.72930  0.72190  Biso   1.000  H
  H87      1.0000 0.03190  0.87290  0.72230  Biso   1.000  H
  O13      1.0000 0.29190  0.59869  0.99607  Biso   1.000  O
  C64      1.0000 0.32294  0.37790  0.99450  Biso   1.000  C
  F28      1.0000 0.36235  0.41030  0.04870  Biso   1.000  F
  F29      1.0000 0.33237  0.38960  0.94740  Biso   1.000  F
  F30      1.0000 0.30320  0.25110  0.98870  Biso   1.000  F
  C65      1.0000 0.27558  0.47930  0.97111  Biso   1.000  C
  C66      1.0000 0.22253  0.43120  0.92646  Biso   1.000  C
  H88      1.0000 0.21730  0.33670  0.91230  Biso   1.000  H
  C67      1.0000 0.17627  0.51600  0.90135  Biso   1.000  C
  C68      1.0000 0.11945  0.44940  0.85523  Biso   1.000  C
  F31      1.0000 0.12017  0.32138  0.83538  Biso   1.000  F
  F32      1.0000 0.08780  0.52641  0.80101  Biso   1.000  F
  F33      1.0000 0.09397  0.44270  0.88524  Biso   1.000  F
  O14      1.0000 0.17499  0.64178  0.91213  Biso   1.000  O
  O15      1.0000 0.26640  0.88273  0.95141  Biso   1.000  O
  N13      1.0000 0.25658  0.85500  0.89411  Biso   1.000  N
  C69      1.0000 0.20909  0.91950  0.83178  Biso   1.000  C
  C70      1.0000 0.22542  0.07100  0.83319  Biso   1.000  C
  H89      1.0000 0.22440  0.12250  0.86670  Biso   1.000  H
  H90      1.0000 0.19960  0.11350  0.78970  Biso   1.000  H
  H91      1.0000 0.26280  0.07440  0.84410  Biso   1.000  H
  C71      1.0000 0.15676  0.91240  0.82872  Biso   1.000  C
  H92      1.0000 0.16040  0.97280  0.86300  Biso   1.000  H
  H93      1.0000 0.15050  0.81590  0.83600  Biso   1.000  H
  H94      1.0000 0.12550  0.94400  0.78510  Biso   1.000  H
  C72      1.0000 0.20950  0.82860  0.78027  Biso   1.000  C
  C73      1.0000 0.17922  0.69040  0.76573  Biso   1.000  C
  H95      1.0000 0.18090  0.63820  0.73290  Biso   1.000  H
  H96      1.0000 0.14060  0.70840  0.74840  Biso   1.000  H
  H97      1.0000 0.19660  0.63560  0.80660  Biso   1.000  H
  C74      1.0000 0.19198  0.90270  0.71695  Biso   1.000  C
  H98      1.0000 0.19350  0.83740  0.68760  Biso   1.000  H
  H99      1.0000 0.21680  0.98140  0.72730  Biso   1.000  H
  H100     1.0000 0.15420  0.93740  0.69490  Biso   1.000  H
  N14      1.0000 0.26955  0.79300  0.81968  Biso   1.000  N
  O16      1.0000 0.29289  0.74756  0.79362  Biso   1.000  O
  C75      1.0000 0.29298  0.79840  0.88540  Biso   1.000  C
  C76      1.0000 0.34718  0.75240  0.93614  Biso   1.000  C
  C77      1.0000 0.38427  0.67410  0.93035  Biso   1.000  C
  H101     1.0000 0.37720  0.64410  0.88950  Biso   1.000  H
  N15      1.0000 0.43004  0.64750  0.98868  Biso   1.000  N
  N16      1.0000 0.42272  0.70920  0.03288  Biso   1.000  N
  C78      1.0000 0.45970  0.67260  0.11060  Biso   1.000  C
  H102     1.0000 0.44230  0.71110  0.13150  Biso   1.000  H
  H103     1.0000 0.46280  0.57010  0.11690  Biso   1.000  H
  C79      1.0000 0.51593  0.73570  0.14180  Biso   1.000  C
  H104     1.0000 0.53900  0.71400  0.18970  Biso   1.000  H
  H105     1.0000 0.53360  0.69250  0.12210  Biso   1.000  H
  C80      1.0000 0.51405  0.89150  0.13280  Biso   1.000  C
  H106     1.0000 0.55170  0.92780  0.15560  Biso   1.000  H
  H107     1.0000 0.49590  0.93480  0.15140  Biso   1.000  H
  H108     1.0000 0.49330  0.91350  0.08560  Biso   1.000  H
  C81      1.0000 0.37426  0.77240  0.00329  Biso   1.000  C
  H109     1.0000 0.36070  0.82210  0.02440  Biso   1.000  H
  F34      1.0000 0.35690  0.36170  0.06500  Biso   1.000  F
  F35      1.0000 0.36307  0.41760  0.98670  Biso   1.000  F
  F36      1.0000 0.31370  0.24330  0.97650  Biso   1.000  F
  C82      1.0000 0.03160  0.77440  0.90310  Biso   1.000  C
  H110     1.0000 0.02390  0.67430  0.89110  Biso   1.000  H
  H111     1.0000 0.99880  0.81820  0.89690  Biso   1.000  H
  C83      1.0000 0.04740  0.84790  0.86230  Biso   1.000  C
  H112     1.0000 0.05290  0.94870  0.87340  Biso   1.000  H
  H113     1.0000 0.08250  0.80910  0.87280  Biso   1.000  H
  C84      1.0000 0.00220  0.82920  0.78860  Biso   1.000  C
  H114     1.0000 0.01370  0.87330  0.76260  Biso   1.000  H
  H115     1.0000 0.99590  0.72930  0.77810  Biso   1.000  H
  H116     1.0000 0.96810  0.87290  0.77770  Biso   1.000  H
  Cu1      1.0000 0.75000  0.75000  0.50000  Biso   1.000  Cu
  Cu2      1.0000 0.25000  0.75000  0.00000  Biso   1.000  Cu
  O17      1.0000 0.29190  0.40131  0.49607  Biso   1.000  O
  C85      1.0000 0.32294  0.62210  0.49450  Biso   1.000  C
  F37      1.0000 0.36235  0.58970  0.54870  Biso   1.000  F
  F38      1.0000 0.33237  0.61040  0.44740  Biso   1.000  F
  F39      1.0000 0.30320  0.74890  0.48870  Biso   1.000  F
  C86      1.0000 0.27558  0.52070  0.47111  Biso   1.000  C
  C87      1.0000 0.22253  0.56880  0.42646  Biso   1.000  C
  H117     1.0000 0.21730  0.66330  0.41230  Biso   1.000  H
  C88      1.0000 0.17627  0.48400  0.40135  Biso   1.000  C
  C89      1.0000 0.11945  0.55060  0.35523  Biso   1.000  C
  F40      1.0000 0.12017  0.67862  0.33538  Biso   1.000  F
  F41      1.0000 0.08780  0.47359  0.30101  Biso   1.000  F
  F42      1.0000 0.09397  0.55730  0.38524  Biso   1.000  F
  O18      1.0000 0.17499  0.35822  0.41213  Biso   1.000  O
  O19      1.0000 0.26640  0.11727  0.45141  Biso   1.000  O
  N17      1.0000 0.25658  0.14500  0.39411  Biso   1.000  N
  C90      1.0000 0.20909  0.08050  0.33178  Biso   1.000  C
  C91      1.0000 0.22542  0.92900  0.33319  Biso   1.000  C
  H118     1.0000 0.22440  0.87750  0.36670  Biso   1.000  H
  H119     1.0000 0.19960  0.88650  0.28970  Biso   1.000  H
  H120     1.0000 0.26280  0.92560  0.34410  Biso   1.000  H
  C92      1.0000 0.15676  0.08760  0.32872  Biso   1.000  C
  H121     1.0000 0.16040  0.02720  0.36300  Biso   1.000  H
  H122     1.0000 0.15050  0.18410  0.33600  Biso   1.000  H
  H123     1.0000 0.12550  0.05600  0.28510  Biso   1.000  H
  C93      1.0000 0.20950  0.17140  0.28027  Biso   1.000  C
  C94      1.0000 0.17922  0.30960  0.26573  Biso   1.000  C
  H124     1.0000 0.18090  0.36180  0.23290  Biso   1.000  H
  H125     1.0000 0.14060  0.29160  0.24840  Biso   1.000  H
  H126     1.0000 0.19660  0.36440  0.30660  Biso   1.000  H
  C95      1.0000 0.19198  0.09730  0.21695  Biso   1.000  C
  H127     1.0000 0.19350  0.16260  0.18760  Biso   1.000  H
  H128     1.0000 0.21680  0.01860  0.22730  Biso   1.000  H
  H129     1.0000 0.15420  0.06260  0.19490  Biso   1.000  H
  N18      1.0000 0.26955  0.20700  0.31968  Biso   1.000  N
  O20      1.0000 0.29289  0.25244  0.29362  Biso   1.000  O
  C96      1.0000 0.29298  0.20160  0.38540  Biso   1.000  C
  C97      1.0000 0.34718  0.24760  0.43614  Biso   1.000  C
  C98      1.0000 0.38427  0.32590  0.43035  Biso   1.000  C
  H130     1.0000 0.37720  0.35590  0.38950  Biso   1.000  H
  N19      1.0000 0.43004  0.35250  0.48868  Biso   1.000  N
  N20      1.0000 0.42272  0.29080  0.53288  Biso   1.000  N
  C99      1.0000 0.45970  0.32740  0.61060  Biso   1.000  C
  H131     1.0000 0.44230  0.28890  0.63150  Biso   1.000  H
  H132     1.0000 0.46280  0.42990  0.61690  Biso   1.000  H
  C100     1.0000 0.51593  0.26430  0.64180  Biso   1.000  C
  H133     1.0000 0.53900  0.28600  0.68970  Biso   1.000  H
  H134     1.0000 0.53360  0.30750  0.62210  Biso   1.000  H
  C101     1.0000 0.51405  0.10850  0.63280  Biso   1.000  C
  H135     1.0000 0.55170  0.07220  0.65560  Biso   1.000  H
  H136     1.0000 0.49590  0.06520  0.65140  Biso   1.000  H
  H137     1.0000 0.49330  0.08650  0.58560  Biso   1.000  H
  C102     1.0000 0.37426  0.22760  0.50329  Biso   1.000  C
  H138     1.0000 0.36070  0.17790  0.52440  Biso   1.000  H
  F43      1.0000 0.35690  0.63830  0.56500  Biso   1.000  F
  F44      1.0000 0.36307  0.58240  0.48670  Biso   1.000  F
  F45      1.0000 0.31370  0.75670  0.47650  Biso   1.000  F
  C103     1.0000 0.03160  0.22560  0.40310  Biso   1.000  C
  H139     1.0000 0.02390  0.32570  0.39110  Biso   1.000  H
  H140     1.0000 0.99880  0.18180  0.39690  Biso   1.000  H
  C104     1.0000 0.04740  0.15210  0.36230  Biso   1.000  C
  H141     1.0000 0.05290  0.05130  0.37340  Biso   1.000  H
  H142     1.0000 0.08250  0.19090  0.37280  Biso   1.000  H
  C105     1.0000 0.00220  0.17080  0.28860  Biso   1.000  C
  H143     1.0000 0.01370  0.12670  0.26260  Biso   1.000  H
  H144     1.0000 0.99590  0.27070  0.27810  Biso   1.000  H
  H145     1.0000 0.96810  0.12710  0.27770  Biso   1.000  H
  O21      1.0000 0.70810  0.40131  0.00393  Biso   1.000  O
  C106     1.0000 0.67706  0.62210  0.00550  Biso   1.000  C
  F46      1.0000 0.63765  0.58970  0.95130  Biso   1.000  F
  F47      1.0000 0.66763  0.61040  0.05260  Biso   1.000  F
  F48      1.0000 0.69680  0.74890  0.01130  Biso   1.000  F
  C107     1.0000 0.72442  0.52070  0.02889  Biso   1.000  C
  C108     1.0000 0.77747  0.56880  0.07354  Biso   1.000  C
  H146     1.0000 0.78270  0.66330  0.08770  Biso   1.000  H
  C109     1.0000 0.82373  0.48400  0.09865  Biso   1.000  C
  C110     1.0000 0.88055  0.55060  0.14477  Biso   1.000  C
  F49      1.0000 0.87983  0.67862  0.16462  Biso   1.000  F
  F50      1.0000 0.91220  0.47359  0.19899  Biso   1.000  F
  F51      1.0000 0.90603  0.55730  0.11476  Biso   1.000  F
  O22      1.0000 0.82501  0.35822  0.08787  Biso   1.000  O
  O23      1.0000 0.73360  0.11727  0.04859  Biso   1.000  O
  N21      1.0000 0.74342  0.14500  0.10589  Biso   1.000  N
  C111     1.0000 0.79091  0.08050  0.16822  Biso   1.000  C
  C112     1.0000 0.77458  0.92900  0.16681  Biso   1.000  C
  H147     1.0000 0.77560  0.87750  0.13330  Biso   1.000  H
  H148     1.0000 0.80040  0.88650  0.21030  Biso   1.000  H
  H149     1.0000 0.73720  0.92560  0.15590  Biso   1.000  H
  C113     1.0000 0.84324  0.08760  0.17128  Biso   1.000  C
  H150     1.0000 0.83960  0.02720  0.13700  Biso   1.000  H
  H151     1.0000 0.84950  0.18410  0.16400  Biso   1.000  H
  H152     1.0000 0.87450  0.05600  0.21490  Biso   1.000  H
  C114     1.0000 0.79050  0.17140  0.21973  Biso   1.000  C
  C115     1.0000 0.82078  0.30960  0.23427  Biso   1.000  C
  H153     1.0000 0.81910  0.36180  0.26710  Biso   1.000  H
  H154     1.0000 0.85940  0.29160  0.25160  Biso   1.000  H
  H155     1.0000 0.80340  0.36440  0.19340  Biso   1.000  H
  C116     1.0000 0.80802  0.09730  0.28305  Biso   1.000  C
  H156     1.0000 0.80650  0.16260  0.31240  Biso   1.000  H
  H157     1.0000 0.78320  0.01860  0.27270  Biso   1.000  H
  H158     1.0000 0.84580  0.06260  0.30510  Biso   1.000  H
  N22      1.0000 0.73045  0.20700  0.18032  Biso   1.000  N
  O24      1.0000 0.70711  0.25244  0.20638  Biso   1.000  O
  C117     1.0000 0.70702  0.20160  0.11460  Biso   1.000  C
  C118     1.0000 0.65282  0.24760  0.06386  Biso   1.000  C
  C119     1.0000 0.61573  0.32590  0.06965  Biso   1.000  C
  H159     1.0000 0.62280  0.35590  0.11050  Biso   1.000  H
  N23      1.0000 0.56996  0.35250  0.01132  Biso   1.000  N
  N24      1.0000 0.57728  0.29080  0.96712  Biso   1.000  N
  C120     1.0000 0.54030  0.32740  0.88940  Biso   1.000  C
  H160     1.0000 0.55770  0.28890  0.86850  Biso   1.000  H
  H161     1.0000 0.53720  0.42990  0.88310  Biso   1.000  H
  C121     1.0000 0.48407  0.26430  0.85820  Biso   1.000  C
  H162     1.0000 0.46100  0.28600  0.81030  Biso   1.000  H
  H163     1.0000 0.46640  0.30750  0.87790  Biso   1.000  H
  C122     1.0000 0.48595  0.10850  0.86720  Biso   1.000  C
  H164     1.0000 0.44830  0.07220  0.84440  Biso   1.000  H
  H165     1.0000 0.50410  0.06520  0.84860  Biso   1.000  H
  H166     1.0000 0.50670  0.08650  0.91440  Biso   1.000  H
  C123     1.0000 0.62574  0.22760  0.99671  Biso   1.000  C
  H167     1.0000 0.63930  0.17790  0.97560  Biso   1.000  H
  F52      1.0000 0.64310  0.63830  0.93500  Biso   1.000  F
  F53      1.0000 0.63693  0.58240  0.01330  Biso   1.000  F
  F54      1.0000 0.68630  0.75670  0.02350  Biso   1.000  F
  C124     1.0000 0.96840  0.22560  0.09690  Biso   1.000  C
  H168     1.0000 0.97610  0.32570  0.10890  Biso   1.000  H
  H169     1.0000 0.00120  0.18180  0.10310  Biso   1.000  H
  C125     1.0000 0.95260  0.15210  0.13770  Biso   1.000  C
  H170     1.0000 0.94710  0.05130  0.12660  Biso   1.000  H
  H171     1.0000 0.91750  0.19090  0.12720  Biso   1.000  H
  C126     1.0000 0.99780  0.17080  0.21140  Biso   1.000  C
  H172     1.0000 0.98630  0.12670  0.23740  Biso   1.000  H
  H173     1.0000 0.00410  0.27070  0.22190  Biso   1.000  H
  H174     1.0000 0.03190  0.12710  0.22230  Biso   1.000  H
  O25      1.0000 0.20810  0.09869  0.50393  Biso   1.000  O
  C127     1.0000 0.17706  0.87790  0.50550  Biso   1.000  C
  F55      1.0000 0.13765  0.91030  0.45130  Biso   1.000  F
  F56      1.0000 0.16763  0.88960  0.55260  Biso   1.000  F
  F57      1.0000 0.19680  0.75110  0.51130  Biso   1.000  F
  C128     1.0000 0.22442  0.97930  0.52889  Biso   1.000  C
  C129     1.0000 0.27747  0.93120  0.57354  Biso   1.000  C
  H175     1.0000 0.28270  0.83670  0.58770  Biso   1.000  H
  C130     1.0000 0.32373  0.01600  0.59865  Biso   1.000  C
  C131     1.0000 0.38055  0.94940  0.64477  Biso   1.000  C
  F58      1.0000 0.37983  0.82138  0.66462  Biso   1.000  F
  F59      1.0000 0.41220  0.02641  0.69899  Biso   1.000  F
  F60      1.0000 0.40603  0.94270  0.61476  Biso   1.000  F
  O26      1.0000 0.32501  0.14178  0.58787  Biso   1.000  O
  O27      1.0000 0.23360  0.38273  0.54859  Biso   1.000  O
  N25      1.0000 0.24342  0.35500  0.60589  Biso   1.000  N
  C132     1.0000 0.29091  0.41950  0.66822  Biso   1.000  C
  C133     1.0000 0.27458  0.57100  0.66681  Biso   1.000  C
  H176     1.0000 0.27560  0.62250  0.63330  Biso   1.000  H
  H177     1.0000 0.30040  0.61350  0.71030  Biso   1.000  H
  H178     1.0000 0.23720  0.57440  0.65590  Biso   1.000  H
  C134     1.0000 0.34324  0.41240  0.67128  Biso   1.000  C
  H179     1.0000 0.33960  0.47280  0.63700  Biso   1.000  H
  H180     1.0000 0.34950  0.31590  0.66400  Biso   1.000  H
  H181     1.0000 0.37450  0.44400  0.71490  Biso   1.000  H
  C135     1.0000 0.29050  0.32860  0.71973  Biso   1.000  C
  C136     1.0000 0.32078  0.19040  0.73427  Biso   1.000  C
  H182     1.0000 0.31910  0.13820  0.76710  Biso   1.000  H
  H183     1.0000 0.35940  0.20840  0.75160  Biso   1.000  H
  H184     1.0000 0.30340  0.13560  0.69340  Biso   1.000  H
  C137     1.0000 0.30802  0.40270  0.78305  Biso   1.000  C
  H185     1.0000 0.30650  0.33740  0.81240  Biso   1.000  H
  H186     1.0000 0.28320  0.48140  0.77270  Biso   1.000  H
  H187     1.0000 0.34580  0.43740  0.80510  Biso   1.000  H
  N26      1.0000 0.23045  0.29300  0.68032  Biso   1.000  N
  O28      1.0000 0.20711  0.24756  0.70638  Biso   1.000  O
  C138     1.0000 0.20702  0.29840  0.61460  Biso   1.000  C
  C139     1.0000 0.15282  0.25240  0.56386  Biso   1.000  C
  C140     1.0000 0.11573  0.17410  0.56965  Biso   1.000  C
  H188     1.0000 0.12280  0.14410  0.61050  Biso   1.000  H
  N27      1.0000 0.06996  0.14750  0.51132  Biso   1.000  N
  N28      1.0000 0.07728  0.20920  0.46712  Biso   1.000  N
  C141     1.0000 0.04030  0.17260  0.38940  Biso   1.000  C
  H189     1.0000 0.05770  0.21110  0.36850  Biso   1.000  H
  H190     1.0000 0.03720  0.07010  0.38310  Biso   1.000  H
  C142     1.0000 0.98407  0.23570  0.35820  Biso   1.000  C
  H191     1.0000 0.96100  0.21400  0.31030  Biso   1.000  H
  H192     1.0000 0.96640  0.19250  0.37790  Biso   1.000  H
  C143     1.0000 0.98595  0.39150  0.36720  Biso   1.000  C
  H193     1.0000 0.94830  0.42780  0.34440  Biso   1.000  H
  H194     1.0000 0.00410  0.43480  0.34860  Biso   1.000  H
  H195     1.0000 0.00670  0.41350  0.41440  Biso   1.000  H
  C144     1.0000 0.12574  0.27240  0.49671  Biso   1.000  C
  H196     1.0000 0.13930  0.32210  0.47560  Biso   1.000  H
  F61      1.0000 0.14310  0.86170  0.43500  Biso   1.000  F
  F62      1.0000 0.13693  0.91760  0.51330  Biso   1.000  F
  F63      1.0000 0.18630  0.74330  0.52350  Biso   1.000  F
  C145     1.0000 0.46840  0.27440  0.59690  Biso   1.000  C
  H197     1.0000 0.47610  0.17430  0.60890  Biso   1.000  H
  H198     1.0000 0.50120  0.31820  0.60310  Biso   1.000  H
  C146     1.0000 0.45260  0.34790  0.63770  Biso   1.000  C
  H199     1.0000 0.44710  0.44870  0.62660  Biso   1.000  H
  H200     1.0000 0.41750  0.30910  0.62720  Biso   1.000  H
  C147     1.0000 0.49780  0.32920  0.71140  Biso   1.000  C
  H201     1.0000 0.48630  0.37330  0.73740  Biso   1.000  H
  H202     1.0000 0.50410  0.22930  0.72190  Biso   1.000  H
  H203     1.0000 0.53190  0.37290  0.72230  Biso   1.000  H
  O29      1.0000 0.79190  0.09869  0.99607  Biso   1.000  O
  C148     1.0000 0.82294  0.87790  0.99450  Biso   1.000  C
  F64      1.0000 0.86235  0.91030  0.04870  Biso   1.000  F
  F65      1.0000 0.83237  0.88960  0.94740  Biso   1.000  F
  F66      1.0000 0.80320  0.75110  0.98870  Biso   1.000  F
  C149     1.0000 0.77558  0.97930  0.97111  Biso   1.000  C
  C150     1.0000 0.72253  0.93120  0.92646  Biso   1.000  C
  H204     1.0000 0.71730  0.83670  0.91230  Biso   1.000  H
  C151     1.0000 0.67627  0.01600  0.90135  Biso   1.000  C
  C152     1.0000 0.61945  0.94940  0.85523  Biso   1.000  C
  F67      1.0000 0.62017  0.82138  0.83538  Biso   1.000  F
  F68      1.0000 0.58780  0.02641  0.80101  Biso   1.000  F
  F69      1.0000 0.59397  0.94270  0.88524  Biso   1.000  F
  O30      1.0000 0.67499  0.14178  0.91213  Biso   1.000  O
  O31      1.0000 0.76640  0.38273  0.95141  Biso   1.000  O
  N29      1.0000 0.75658  0.35500  0.89411  Biso   1.000  N
  C153     1.0000 0.70909  0.41950  0.83178  Biso   1.000  C
  C154     1.0000 0.72542  0.57100  0.83319  Biso   1.000  C
  H205     1.0000 0.72440  0.62250  0.86670  Biso   1.000  H
  H206     1.0000 0.69960  0.61350  0.78970  Biso   1.000  H
  H207     1.0000 0.76280  0.57440  0.84410  Biso   1.000  H
  C155     1.0000 0.65676  0.41240  0.82872  Biso   1.000  C
  H208     1.0000 0.66040  0.47280  0.86300  Biso   1.000  H
  H209     1.0000 0.65050  0.31590  0.83600  Biso   1.000  H
  H210     1.0000 0.62550  0.44400  0.78510  Biso   1.000  H
  C156     1.0000 0.70950  0.32860  0.78027  Biso   1.000  C
  C157     1.0000 0.67922  0.19040  0.76573  Biso   1.000  C
  H211     1.0000 0.68090  0.13820  0.73290  Biso   1.000  H
  H212     1.0000 0.64060  0.20840  0.74840  Biso   1.000  H
  H213     1.0000 0.69660  0.13560  0.80660  Biso   1.000  H
  C158     1.0000 0.69198  0.40270  0.71695  Biso   1.000  C
  H214     1.0000 0.69350  0.33740  0.68760  Biso   1.000  H
  H215     1.0000 0.71680  0.48140  0.72730  Biso   1.000  H
  H216     1.0000 0.65420  0.43740  0.69490  Biso   1.000  H
  N30      1.0000 0.76955  0.29300  0.81968  Biso   1.000  N
  O32      1.0000 0.79289  0.24756  0.79362  Biso   1.000  O
  C159     1.0000 0.79298  0.29840  0.88540  Biso   1.000  C
  C160     1.0000 0.84718  0.25240  0.93614  Biso   1.000  C
  C161     1.0000 0.88427  0.17410  0.93035  Biso   1.000  C
  H217     1.0000 0.87720  0.14410  0.88950  Biso   1.000  H
  N31      1.0000 0.93004  0.14750  0.98868  Biso   1.000  N
  N32      1.0000 0.92272  0.20920  0.03288  Biso   1.000  N
  C162     1.0000 0.95970  0.17260  0.11060  Biso   1.000  C
  H218     1.0000 0.94230  0.21110  0.13150  Biso   1.000  H
  H219     1.0000 0.96280  0.07010  0.11690  Biso   1.000  H
  C163     1.0000 0.01593  0.23570  0.14180  Biso   1.000  C
  H220     1.0000 0.03900  0.21400  0.18970  Biso   1.000  H
  H221     1.0000 0.03360  0.19250  0.12210  Biso   1.000  H
  C164     1.0000 0.01405  0.39150  0.13280  Biso   1.000  C
  H222     1.0000 0.05170  0.42780  0.15560  Biso   1.000  H
  H223     1.0000 0.99590  0.43480  0.15140  Biso   1.000  H
  H224     1.0000 0.99330  0.41350  0.08560  Biso   1.000  H
  C165     1.0000 0.87426  0.27240  0.00329  Biso   1.000  C
  H225     1.0000 0.86070  0.32210  0.02440  Biso   1.000  H
  F70      1.0000 0.85690  0.86170  0.06500  Biso   1.000  F
  F71      1.0000 0.86307  0.91760  0.98670  Biso   1.000  F
  F72      1.0000 0.81370  0.74330  0.97650  Biso   1.000  F
  C166     1.0000 0.53160  0.27440  0.90310  Biso   1.000  C
  H226     1.0000 0.52390  0.17430  0.89110  Biso   1.000  H
  H227     1.0000 0.49880  0.31820  0.89690  Biso   1.000  H
  C167     1.0000 0.54740  0.34790  0.86230  Biso   1.000  C
  H228     1.0000 0.55290  0.44870  0.87340  Biso   1.000  H
  H229     1.0000 0.58250  0.30910  0.87280  Biso   1.000  H
  C168     1.0000 0.50220  0.32920  0.78860  Biso   1.000  C
  H230     1.0000 0.51370  0.37330  0.76260  Biso   1.000  H
  H231     1.0000 0.49590  0.22930  0.77810  Biso   1.000  H
  H232     1.0000 0.46810  0.37290  0.77770  Biso   1.000  H
  Cu3      1.0000 0.25000  0.25000  0.50000  Biso   1.000  Cu
  Cu4      1.0000 0.75000  0.25000  0.00000  Biso   1.000  Cu
