data_image0
_cell_length_a       8.908
_cell_length_b       12.428
_cell_length_c       32.131
_cell_angle_alpha    93.525
_cell_angle_beta     95.154
_cell_angle_gamma    92.39

_symmetry_space_group_name_H-M    "P 1"
_symmetry_int_tables_number       1

loop_
  _symmetry_equiv_pos_as_xyz
  'x, y, z'

loop_
  _atom_site_label
  _atom_site_occupancy
  _atom_site_fract_x
  _atom_site_fract_y
  _atom_site_fract_z
  _atom_site_thermal_displace_type
  _atom_site_B_iso_or_equiv
  _atom_site_type_symbol
  Cd1      1.0000 0.04183  0.22452  0.41304  Biso   1.000  Cd
  Cd2      1.0000 0.00446  0.80377  0.24955  Biso   1.000  Cd
  Cd3      1.0000 0.05942  0.27445  0.08129  Biso   1.000  Cd
  N1       1.0000 0.64100  0.43120  0.40342  Biso   1.000  N
  N2       1.0000 0.82350  0.31940  0.41433  Biso   1.000  N
  N3       1.0000 0.78300  0.99470  0.48115  Biso   1.000  N
  N4       1.0000 0.92160  0.08750  0.44083  Biso   1.000  N
  N5       1.0000 0.26060  0.02900  0.17912  Biso   1.000  N
  N6       1.0000 0.12420  0.93990  0.22000  Biso   1.000  N
  N7       1.0000 0.40400  0.59830  0.26503  Biso   1.000  N
  N8       1.0000 0.22260  0.70870  0.24974  Biso   1.000  N
  N9       1.0000 0.64090  0.45030  0.07270  Biso   1.000  N
  N10      1.0000 0.83330  0.35070  0.08893  Biso   1.000  N
  N11      1.0000 0.82390  0.01380  0.13773  Biso   1.000  N
  N12      1.0000 0.96010  0.12310  0.10291  Biso   1.000  N
  O1       1.0000 0.26080  0.15810  0.39269  Biso   1.000  O
  O2       1.0000 0.14760  0.00420  0.36750  Biso   1.000  O
  O3       1.0000 0.78640  0.87500  0.26746  Biso   1.000  O
  O4       1.0000 0.90110  0.02860  0.29263  Biso   1.000  O
  O5       1.0000 0.24340  0.17600  0.05102  Biso   1.000  O
  O6       1.0000 0.21440  0.20080  0.98298  Biso   1.000  O
  F1       1.0000 0.38150  0.19900  0.31230  Biso   1.000  F
  F2       1.0000 0.62610  0.15090  0.27451  Biso   1.000  F
  F3       1.0000 0.42050  0.88210  0.38487  Biso   1.000  F
  F4       1.0000 0.66560  0.83510  0.34727  Biso   1.000  F
  F5       1.0000 0.51950  0.19200  0.96582  Biso   1.000  F
  F6       1.0000 0.26960  0.94570  0.04501  Biso   1.000  F
  C1       1.0000 0.90000  0.51690  0.41950  Biso   1.000  C
  H1       1.0000 0.89550  0.55880  0.39530  Biso   1.000  H
  H2       1.0000 0.99970  0.49130  0.42460  Biso   1.000  H
  H3       1.0000 0.87640  0.56110  0.44340  Biso   1.000  H
  C2       1.0000 0.78780  0.42230  0.41190  Biso   1.000  C
  C3       1.0000 0.68770  0.26110  0.40630  Biso   1.000  C
  H4       1.0000 0.67630  0.18630  0.40560  Biso   1.000  H
  C4       1.0000 0.57530  0.32710  0.39970  Biso   1.000  C
  H5       1.0000 0.47330  0.30760  0.39380  Biso   1.000  H
  C5       1.0000 0.56000  0.52880  0.39490  Biso   1.000  C
  H6       1.0000 0.60560  0.58850  0.41320  Biso   1.000  H
  H7       1.0000 0.45620  0.51800  0.40130  Biso   1.000  H
  C6       1.0000 0.56140  0.55800  0.34980  Biso   1.000  C
  H8       1.0000 0.51420  0.62630  0.34660  Biso   1.000  H
  H9       1.0000 0.66510  0.56720  0.34320  Biso   1.000  H
  C7       1.0000 0.88170  0.17630  0.51030  Biso   1.000  C
  H10      1.0000 0.96270  0.22540  0.50490  Biso   1.000  H
  H11      1.0000 0.90330  0.14840  0.53730  Biso   1.000  H
  H12      1.0000 0.78940  0.21360  0.50990  Biso   1.000  H
  C8       1.0000 0.86600  0.08770  0.47820  Biso   1.000  C
  C9       1.0000 0.55250  0.01050  0.51890  Biso   1.000  C
  H13      1.0000 0.50610  0.98200  0.54230  Biso   1.000  H
  H14      1.0000 0.56710  0.08800  0.52450  Biso   1.000  H
  C10      1.0000 0.70430  0.96360  0.51690  Biso   1.000  C
  H15      1.0000 0.76680  0.98630  0.54250  Biso   1.000  H
  H16      1.0000 0.69180  0.88550  0.51570  Biso   1.000  H
  C11      1.0000 0.78690  0.93400  0.44420  Biso   1.000  C
  H17      1.0000 0.74000  0.86620  0.43730  Biso   1.000  H
  C12      1.0000 0.87090  0.99050  0.41980  Biso   1.000  C
  H18      1.0000 0.89190  0.96810  0.39280  Biso   1.000  H
  C13      1.0000 0.25390  0.07140  0.37150  Biso   1.000  C
  C14      1.0000 0.39470  0.04330  0.35040  Biso   1.000  C
  C15      1.0000 0.47010  0.95080  0.35720  Biso   1.000  C
  C16      1.0000 0.59480  0.92470  0.33770  Biso   1.000  C
  C17      1.0000 0.65310  0.99170  0.30949  Biso   1.000  C
  C18      1.0000 0.57820  0.08420  0.30230  Biso   1.000  C
  C19      1.0000 0.45270  0.10790  0.32250  Biso   1.000  C
  C20      1.0000 0.79270  0.96260  0.28780  Biso   1.000  C
  C21      1.0000 0.14880  0.85070  0.14890  Biso   1.000  C
  H19      1.0000 0.23340  0.80520  0.14960  Biso   1.000  H
  H20      1.0000 0.13610  0.88150  0.12220  Biso   1.000  H
  H21      1.0000 0.05930  0.80870  0.15310  Biso   1.000  H
  C22      1.0000 0.17650  0.93920  0.18290  Biso   1.000  C
  C23      1.0000 0.17920  0.03580  0.24090  Biso   1.000  C
  H22      1.0000 0.16150  0.05920  0.26800  Biso   1.000  H
  C24      1.0000 0.26250  0.08940  0.21550  Biso   1.000  C
  H23      1.0000 0.31270  0.15640  0.22190  Biso   1.000  H
  C25      1.0000 0.33720  0.06100  0.14310  Biso   1.000  C
  H24      1.0000 0.36000  0.13830  0.14610  Biso   1.000  H
  H25      1.0000 0.26930  0.04590  0.11790  Biso   1.000  H
  C26      1.0000 0.48190  0.00390  0.13800  Biso   1.000  C
  H26      1.0000 0.45790  0.92740  0.13200  Biso   1.000  H
  H27      1.0000 0.52820  0.03090  0.11430  Biso   1.000  H
  C27      1.0000 0.59300  0.01880  0.17600  Biso   1.000  C
  H28      1.0000 0.54810  0.98660  0.19890  Biso   1.000  H
  H29      1.0000 0.60820  0.09560  0.18340  Biso   1.000  H
  C28      1.0000 0.14410  0.51220  0.24800  Biso   1.000  C
  H30      1.0000 0.15190  0.47000  0.27210  Biso   1.000  H
  H31      1.0000 0.16480  0.46840  0.22370  Biso   1.000  H
  H32      1.0000 0.04400  0.53780  0.24390  Biso   1.000  H
  C29      1.0000 0.25710  0.60750  0.25480  Biso   1.000  C
  C30      1.0000 0.35880  0.76720  0.25770  Biso   1.000  C
  H33      1.0000 0.37110  0.84160  0.25660  Biso   1.000  H
  C31      1.0000 0.47120  0.70120  0.26710  Biso   1.000  C
  H34      1.0000 0.57290  0.72070  0.27370  Biso   1.000  H
  C32      1.0000 0.48330  0.50220  0.27440  Biso   1.000  C
  H35      1.0000 0.58720  0.51220  0.26800  Biso   1.000  H
  H36      1.0000 0.43740  0.44180  0.25650  Biso   1.000  H
  C33      1.0000 0.48160  0.47510  0.32000  Biso   1.000  C
  H37      1.0000 0.37770  0.46660  0.32650  Biso   1.000  H
  H38      1.0000 0.52810  0.40670  0.32360  Biso   1.000  H
  C34      1.0000 0.26700  0.15600  0.01410  Biso   1.000  C
  C35      1.0000 0.38930  0.07600  0.00660  Biso   1.000  C
  C36      1.0000 0.50550  0.09630  0.98280  Biso   1.000  C
  C37      1.0000 0.38770  0.97530  0.02350  Biso   1.000  C
  C38      1.0000 0.88940  0.54440  0.08440  Biso   1.000  C
  H39      1.0000 0.83790  0.60490  0.09520  Biso   1.000  H
  H40      1.0000 0.91660  0.55730  0.05680  Biso   1.000  H
  H41      1.0000 0.97880  0.53470  0.10250  Biso   1.000  H
  C39      1.0000 0.79050  0.44760  0.08240  Biso   1.000  C
  C40      1.0000 0.69820  0.28410  0.08330  Biso   1.000  C
  H42      1.0000 0.69210  0.21020  0.08650  Biso   1.000  H
  C41      1.0000 0.58150  0.34420  0.07280  Biso   1.000  C
  H43      1.0000 0.48110  0.32040  0.06680  Biso   1.000  H
  C42      1.0000 0.55220  0.53930  0.05850  Biso   1.000  C
  H44      1.0000 0.59580  0.60640  0.07230  Biso   1.000  H
  H45      1.0000 0.45040  0.52950  0.06650  Biso   1.000  H
  C43      1.0000 0.54600  0.54730  0.01280  Biso   1.000  C
  H46      1.0000 0.64810  0.54950  0.00450  Biso   1.000  H
  H47      1.0000 0.50150  0.61460  0.00580  Biso   1.000  H
  C44      1.0000 0.91780  0.18780  0.17660  Biso   1.000  C
  H48      1.0000 0.99530  0.24190  0.17330  Biso   1.000  H
  H49      1.0000 0.94430  0.15070  0.20140  Biso   1.000  H
  H50      1.0000 0.82380  0.22150  0.17910  Biso   1.000  H
  C45      1.0000 0.90260  0.10960  0.13950  Biso   1.000  C
  C46      1.0000 0.83040  0.96370  0.09810  Biso   1.000  C
  H51      1.0000 0.78490  0.89770  0.08750  Biso   1.000  H
  C47      1.0000 0.74620  0.97240  0.17250  Biso   1.000  C
  H52      1.0000 0.80870  0.98980  0.19860  Biso   1.000  H
  H53      1.0000 0.73390  0.89450  0.16860  Biso   1.000  H
  C48      1.0000 0.91790  0.03220  0.07820  Biso   1.000  C
  H54      1.0000 0.94550  0.01870  0.05120  Biso   1.000  H
  Cd4      1.0000 0.95817  0.77548  0.58696  Biso   1.000  Cd
  Cd5      1.0000 0.99554  0.19623  0.75045  Biso   1.000  Cd
  Cd6      1.0000 0.94058  0.72555  0.91871  Biso   1.000  Cd
  N13      1.0000 0.35900  0.56880  0.59658  Biso   1.000  N
  N14      1.0000 0.17650  0.68060  0.58567  Biso   1.000  N
  N15      1.0000 0.21700  0.00530  0.51885  Biso   1.000  N
  N16      1.0000 0.07840  0.91250  0.55917  Biso   1.000  N
  N17      1.0000 0.73940  0.97100  0.82088  Biso   1.000  N
  N18      1.0000 0.87580  0.06010  0.78000  Biso   1.000  N
  N19      1.0000 0.59600  0.40170  0.73497  Biso   1.000  N
  N20      1.0000 0.77740  0.29130  0.75026  Biso   1.000  N
  N21      1.0000 0.35910  0.54970  0.92730  Biso   1.000  N
  N22      1.0000 0.16670  0.64930  0.91107  Biso   1.000  N
  N23      1.0000 0.17610  0.98620  0.86227  Biso   1.000  N
  N24      1.0000 0.03990  0.87690  0.89709  Biso   1.000  N
  O7       1.0000 0.73920  0.84190  0.60731  Biso   1.000  O
  O8       1.0000 0.85240  0.99580  0.63250  Biso   1.000  O
  O9       1.0000 0.21360  0.12500  0.73254  Biso   1.000  O
  O10      1.0000 0.09890  0.97140  0.70737  Biso   1.000  O
  O11      1.0000 0.75660  0.82400  0.94898  Biso   1.000  O
  O12      1.0000 0.78560  0.79920  0.01702  Biso   1.000  O
  F7       1.0000 0.61850  0.80100  0.68770  Biso   1.000  F
  F8       1.0000 0.37390  0.84910  0.72549  Biso   1.000  F
  F9       1.0000 0.57950  0.11790  0.61513  Biso   1.000  F
  F10      1.0000 0.33440  0.16490  0.65273  Biso   1.000  F
  F11      1.0000 0.48050  0.80800  0.03418  Biso   1.000  F
  F12      1.0000 0.73040  0.05430  0.95499  Biso   1.000  F
  C49      1.0000 0.10000  0.48310  0.58050  Biso   1.000  C
  H55      1.0000 0.10450  0.44120  0.60470  Biso   1.000  H
  H56      1.0000 0.00030  0.50870  0.57540  Biso   1.000  H
  H57      1.0000 0.12360  0.43890  0.55660  Biso   1.000  H
  C50      1.0000 0.21220  0.57770  0.58810  Biso   1.000  C
  C51      1.0000 0.31230  0.73890  0.59370  Biso   1.000  C
  H58      1.0000 0.32370  0.81370  0.59440  Biso   1.000  H
  C52      1.0000 0.42470  0.67290  0.60030  Biso   1.000  C
  H59      1.0000 0.52670  0.69240  0.60620  Biso   1.000  H
  C53      1.0000 0.44000  0.47120  0.60510  Biso   1.000  C
  H60      1.0000 0.39440  0.41150  0.58680  Biso   1.000  H
  H61      1.0000 0.54380  0.48200  0.59870  Biso   1.000  H
  C54      1.0000 0.43860  0.44200  0.65020  Biso   1.000  C
  H62      1.0000 0.48580  0.37370  0.65340  Biso   1.000  H
  H63      1.0000 0.33490  0.43280  0.65680  Biso   1.000  H
  C55      1.0000 0.11830  0.82370  0.48970  Biso   1.000  C
  H64      1.0000 0.03730  0.77460  0.49510  Biso   1.000  H
  H65      1.0000 0.09670  0.85160  0.46270  Biso   1.000  H
  H66      1.0000 0.21060  0.78640  0.49010  Biso   1.000  H
  C56      1.0000 0.13400  0.91230  0.52180  Biso   1.000  C
  C57      1.0000 0.44750  0.98950  0.48110  Biso   1.000  C
  H67      1.0000 0.49390  0.01800  0.45770  Biso   1.000  H
  H68      1.0000 0.43290  0.91200  0.47550  Biso   1.000  H
  C58      1.0000 0.29570  0.03640  0.48310  Biso   1.000  C
  H69      1.0000 0.23320  0.01370  0.45750  Biso   1.000  H
  H70      1.0000 0.30820  0.11450  0.48430  Biso   1.000  H
  C59      1.0000 0.21310  0.06600  0.55580  Biso   1.000  C
  H71      1.0000 0.26000  0.13380  0.56270  Biso   1.000  H
  C60      1.0000 0.12910  0.00950  0.58020  Biso   1.000  C
  H72      1.0000 0.10810  0.03190  0.60720  Biso   1.000  H
  C61      1.0000 0.74610  0.92860  0.62850  Biso   1.000  C
  C62      1.0000 0.60530  0.95670  0.64960  Biso   1.000  C
  C63      1.0000 0.52990  0.04920  0.64280  Biso   1.000  C
  C64      1.0000 0.40520  0.07530  0.66230  Biso   1.000  C
  C65      1.0000 0.34690  0.00830  0.69051  Biso   1.000  C
  C66      1.0000 0.42180  0.91580  0.69770  Biso   1.000  C
  C67      1.0000 0.54730  0.89210  0.67750  Biso   1.000  C
  C68      1.0000 0.20730  0.03740  0.71220  Biso   1.000  C
  C69      1.0000 0.85120  0.14930  0.85110  Biso   1.000  C
  H73      1.0000 0.76660  0.19480  0.85040  Biso   1.000  H
  H74      1.0000 0.86390  0.11850  0.87780  Biso   1.000  H
  H75      1.0000 0.94070  0.19130  0.84690  Biso   1.000  H
  C70      1.0000 0.82350  0.06080  0.81710  Biso   1.000  C
  C71      1.0000 0.82080  0.96420  0.75910  Biso   1.000  C
  H76      1.0000 0.83850  0.94080  0.73200  Biso   1.000  H
  C72      1.0000 0.73750  0.91060  0.78450  Biso   1.000  C
  H77      1.0000 0.68730  0.84360  0.77810  Biso   1.000  H
  C73      1.0000 0.66280  0.93900  0.85690  Biso   1.000  C
  H78      1.0000 0.64000  0.86170  0.85390  Biso   1.000  H
  H79      1.0000 0.73070  0.95410  0.88210  Biso   1.000  H
  C74      1.0000 0.51810  0.99610  0.86200  Biso   1.000  C
  H80      1.0000 0.54210  0.07260  0.86800  Biso   1.000  H
  H81      1.0000 0.47180  0.96910  0.88570  Biso   1.000  H
  C75      1.0000 0.40700  0.98120  0.82400  Biso   1.000  C
  H82      1.0000 0.45190  0.01340  0.80110  Biso   1.000  H
  H83      1.0000 0.39180  0.90440  0.81660  Biso   1.000  H
  C76      1.0000 0.85590  0.48780  0.75200  Biso   1.000  C
  H84      1.0000 0.84810  0.53000  0.72790  Biso   1.000  H
  H85      1.0000 0.83520  0.53160  0.77630  Biso   1.000  H
  H86      1.0000 0.95600  0.46220  0.75610  Biso   1.000  H
  C77      1.0000 0.74290  0.39250  0.74520  Biso   1.000  C
  C78      1.0000 0.64120  0.23280  0.74230  Biso   1.000  C
  H87      1.0000 0.62890  0.15840  0.74340  Biso   1.000  H
  C79      1.0000 0.52880  0.29880  0.73290  Biso   1.000  C
  H88      1.0000 0.42710  0.27930  0.72630  Biso   1.000  H
  C80      1.0000 0.51670  0.49780  0.72560  Biso   1.000  C
  H89      1.0000 0.41280  0.48780  0.73200  Biso   1.000  H
  H90      1.0000 0.56260  0.55820  0.74350  Biso   1.000  H
  C81      1.0000 0.51840  0.52490  0.68000  Biso   1.000  C
  H91      1.0000 0.62230  0.53340  0.67350  Biso   1.000  H
  H92      1.0000 0.47190  0.59330  0.67640  Biso   1.000  H
  C82      1.0000 0.73300  0.84400  0.98590  Biso   1.000  C
  C83      1.0000 0.61070  0.92400  0.99340  Biso   1.000  C
  C84      1.0000 0.49450  0.90370  0.01720  Biso   1.000  C
  C85      1.0000 0.61230  0.02470  0.97650  Biso   1.000  C
  C86      1.0000 0.11060  0.45560  0.91560  Biso   1.000  C
  H93      1.0000 0.16210  0.39510  0.90480  Biso   1.000  H
  H94      1.0000 0.08340  0.44270  0.94320  Biso   1.000  H
  H95      1.0000 0.02120  0.46530  0.89750  Biso   1.000  H
  C87      1.0000 0.20950  0.55240  0.91760  Biso   1.000  C
  C88      1.0000 0.30180  0.71590  0.91670  Biso   1.000  C
  H96      1.0000 0.30790  0.78980  0.91350  Biso   1.000  H
  C89      1.0000 0.41850  0.65580  0.92720  Biso   1.000  C
  H97      1.0000 0.51890  0.67960  0.93320  Biso   1.000  H
  C90      1.0000 0.44780  0.46070  0.94150  Biso   1.000  C
  H98      1.0000 0.40420  0.39360  0.92770  Biso   1.000  H
  H99      1.0000 0.54960  0.47050  0.93350  Biso   1.000  H
  C91      1.0000 0.45400  0.45270  0.98720  Biso   1.000  C
  H100     1.0000 0.35190  0.45050  0.99550  Biso   1.000  H
  H101     1.0000 0.49850  0.38540  0.99420  Biso   1.000  H
  C92      1.0000 0.08220  0.81220  0.82340  Biso   1.000  C
  H102     1.0000 0.00470  0.75810  0.82670  Biso   1.000  H
  H103     1.0000 0.05570  0.84930  0.79860  Biso   1.000  H
  H104     1.0000 0.17620  0.77850  0.82090  Biso   1.000  H
  C93      1.0000 0.09740  0.89040  0.86050  Biso   1.000  C
  C94      1.0000 0.16960  0.03630  0.90190  Biso   1.000  C
  H105     1.0000 0.21510  0.10230  0.91250  Biso   1.000  H
  C95      1.0000 0.25380  0.02760  0.82750  Biso   1.000  C
  H106     1.0000 0.19130  0.01020  0.80140  Biso   1.000  H
  H107     1.0000 0.26610  0.10550  0.83140  Biso   1.000  H
  C96      1.0000 0.08210  0.96780  0.92180  Biso   1.000  C
  H108     1.0000 0.05450  0.98130  0.94880  Biso   1.000  H
