data_image0
_cell_length_a       6.9659
_cell_length_b       14.3405
_cell_length_c       7.4477
_cell_angle_alpha    90
_cell_angle_beta     92.179
_cell_angle_gamma    90

_symmetry_space_group_name_H-M    "P 1"
_symmetry_int_tables_number       1

loop_
  _symmetry_equiv_pos_as_xyz
  'x, y, z'

loop_
  _atom_site_label
  _atom_site_occupancy
  _atom_site_fract_x
  _atom_site_fract_y
  _atom_site_fract_z
  _atom_site_thermal_displace_type
  _atom_site_B_iso_or_equiv
  _atom_site_type_symbol
  Zn1      1.0000 0.66240  0.69130  0.91901  Biso   1.000  Zn
  C1       1.0000 0.91510  0.83210  0.74380  Biso   1.000  C
  C2       1.0000 0.88760  0.89140  0.91080  Biso   1.000  C
  H1       1.0000 0.75850  0.91680  0.90490  Biso   1.000  H
  H2       1.0000 0.97640  0.94340  0.90900  Biso   1.000  H
  C3       1.0000 0.91730  0.84060  0.08730  Biso   1.000  C
  O1       1.0000 0.83720  0.75242  0.73080  Biso   1.000  O
  O2       1.0000 0.82980  0.76400  0.10960  Biso   1.000  O
  O3       1.0000 0.01430  0.86747  0.62570  Biso   1.000  O
  O4       1.0000 0.02600  0.87765  0.20500  Biso   1.000  O
  Zn2      1.0000 0.16240  0.80870  0.41901  Biso   1.000  Zn
  C4       1.0000 0.41510  0.66790  0.24380  Biso   1.000  C
  C5       1.0000 0.38760  0.60860  0.41080  Biso   1.000  C
  H3       1.0000 0.25850  0.58320  0.40490  Biso   1.000  H
  H4       1.0000 0.47640  0.55660  0.40900  Biso   1.000  H
  C6       1.0000 0.41730  0.65940  0.58730  Biso   1.000  C
  O5       1.0000 0.33720  0.74758  0.23080  Biso   1.000  O
  O6       1.0000 0.32980  0.73600  0.60960  Biso   1.000  O
  O7       1.0000 0.51430  0.63253  0.12570  Biso   1.000  O
  O8       1.0000 0.52600  0.62235  0.70500  Biso   1.000  O
  Zn3      1.0000 0.83760  0.19130  0.58099  Biso   1.000  Zn
  C7       1.0000 0.58490  0.33210  0.75620  Biso   1.000  C
  C8       1.0000 0.61240  0.39140  0.58920  Biso   1.000  C
  H5       1.0000 0.74150  0.41680  0.59510  Biso   1.000  H
  H6       1.0000 0.52360  0.44340  0.59100  Biso   1.000  H
  C9       1.0000 0.58270  0.34060  0.41270  Biso   1.000  C
  O9       1.0000 0.66280  0.25242  0.76920  Biso   1.000  O
  O10      1.0000 0.67020  0.26400  0.39040  Biso   1.000  O
  O11      1.0000 0.48570  0.36747  0.87430  Biso   1.000  O
  O12      1.0000 0.47400  0.37765  0.29500  Biso   1.000  O
  Zn4      1.0000 0.33760  0.30870  0.08099  Biso   1.000  Zn
  C10      1.0000 0.08490  0.16790  0.25620  Biso   1.000  C
  C11      1.0000 0.11240  0.10860  0.08920  Biso   1.000  C
  H7       1.0000 0.24150  0.08320  0.09510  Biso   1.000  H
  H8       1.0000 0.02360  0.05660  0.09100  Biso   1.000  H
  C12      1.0000 0.08270  0.15940  0.91270  Biso   1.000  C
  O13      1.0000 0.16280  0.24758  0.26920  Biso   1.000  O
  O14      1.0000 0.17020  0.23600  0.89040  Biso   1.000  O
  O15      1.0000 0.98570  0.13253  0.37430  Biso   1.000  O
  O16      1.0000 0.97400  0.12235  0.79500  Biso   1.000  O
