data_image0
_cell_length_a       6.9461
_cell_length_b       14.269
_cell_length_c       7.432
_cell_angle_alpha    90
_cell_angle_beta     92.232
_cell_angle_gamma    90

_symmetry_space_group_name_H-M    "P 1"
_symmetry_int_tables_number       1

loop_
  _symmetry_equiv_pos_as_xyz
  'x, y, z'

loop_
  _atom_site_label
  _atom_site_occupancy
  _atom_site_fract_x
  _atom_site_fract_y
  _atom_site_fract_z
  _atom_site_thermal_displace_type
  _atom_site_B_iso_or_equiv
  _atom_site_type_symbol
  Zn1      1.0000 0.16201  0.30863  0.41903  Biso   1.000  Zn
  C1       1.0000 0.41750  0.16050  0.58810  Biso   1.000  C
  C2       1.0000 0.38420  0.10860  0.40900  Biso   1.000  C
  H1       1.0000 0.47120  0.05550  0.40680  Biso   1.000  H
  H2       1.0000 0.25370  0.08430  0.40350  Biso   1.000  H
  C3       1.0000 0.41310  0.16760  0.24370  Biso   1.000  C
  O1       1.0000 0.32850  0.23610  0.60920  Biso   1.000  O
  O2       1.0000 0.33560  0.24780  0.22990  Biso   1.000  O
  O3       1.0000 0.52570  0.12250  0.70550  Biso   1.000  O
  O4       1.0000 0.51400  0.13210  0.12580  Biso   1.000  O
  Zn2      1.0000 0.66201  0.19137  0.91903  Biso   1.000  Zn
  C4       1.0000 0.91750  0.33950  0.08810  Biso   1.000  C
  C5       1.0000 0.88420  0.39140  0.90900  Biso   1.000  C
  H3       1.0000 0.97120  0.44450  0.90680  Biso   1.000  H
  H4       1.0000 0.75370  0.41570  0.90350  Biso   1.000  H
  C6       1.0000 0.91310  0.33240  0.74370  Biso   1.000  C
  O5       1.0000 0.82850  0.26390  0.10920  Biso   1.000  O
  O6       1.0000 0.83560  0.25220  0.72990  Biso   1.000  O
  O7       1.0000 0.02570  0.37750  0.20550  Biso   1.000  O
  O8       1.0000 0.01400  0.36790  0.62580  Biso   1.000  O
  Zn3      1.0000 0.33799  0.80863  0.08097  Biso   1.000  Zn
  C7       1.0000 0.08250  0.66050  0.91190  Biso   1.000  C
  C8       1.0000 0.11580  0.60860  0.09100  Biso   1.000  C
  H5       1.0000 0.02880  0.55550  0.09320  Biso   1.000  H
  H6       1.0000 0.24630  0.58430  0.09650  Biso   1.000  H
  C9       1.0000 0.08690  0.66760  0.25630  Biso   1.000  C
  O9       1.0000 0.17150  0.73610  0.89080  Biso   1.000  O
  O10      1.0000 0.16440  0.74780  0.27010  Biso   1.000  O
  O11      1.0000 0.97430  0.62250  0.79450  Biso   1.000  O
  O12      1.0000 0.98600  0.63210  0.37420  Biso   1.000  O
  Zn4      1.0000 0.83799  0.69137  0.58097  Biso   1.000  Zn
  C10      1.0000 0.58250  0.83950  0.41190  Biso   1.000  C
  C11      1.0000 0.61580  0.89140  0.59100  Biso   1.000  C
  H7       1.0000 0.52880  0.94450  0.59320  Biso   1.000  H
  H8       1.0000 0.74630  0.91570  0.59650  Biso   1.000  H
  C12      1.0000 0.58690  0.83240  0.75630  Biso   1.000  C
  O13      1.0000 0.67150  0.76390  0.39080  Biso   1.000  O
  O14      1.0000 0.66440  0.75220  0.77010  Biso   1.000  O
  O15      1.0000 0.47430  0.87750  0.29450  Biso   1.000  O
  O16      1.0000 0.48600  0.86790  0.87420  Biso   1.000  O
