data_image0
_cell_length_a       11.6882
_cell_length_b       13.7871
_cell_length_c       32.499
_cell_angle_alpha    90
_cell_angle_beta     97.748
_cell_angle_gamma    90

_symmetry_space_group_name_H-M    "P 1"
_symmetry_int_tables_number       1

loop_
  _symmetry_equiv_pos_as_xyz
  'x, y, z'

loop_
  _atom_site_label
  _atom_site_occupancy
  _atom_site_fract_x
  _atom_site_fract_y
  _atom_site_fract_z
  _atom_site_thermal_displace_type
  _atom_site_B_iso_or_equiv
  _atom_site_type_symbol
  Ag1      1.0000 0.74397  0.19849  0.31795  Biso   1.000  Ag
  Ag2      1.0000 0.61792  0.35310  0.35408  Biso   1.000  Ag
  Ag3      1.0000 0.68236  0.26300  0.22673  Biso   1.000  Ag
  Ag4      1.0000 0.55981  0.20496  0.13559  Biso   1.000  Ag
  Ag5      1.0000 0.22645  0.34773  0.36305  Biso   1.000  Ag
  Ag6      1.0000 0.89448  0.36002  0.34103  Biso   1.000  Ag
  Ag7      1.0000 0.55540  0.36270  0.08645  Biso   1.000  Ag
  Ag8      1.0000 0.44170  0.38550  0.41450  Biso   1.000  Ag
  Ag9      1.0000 0.06726  0.18135  0.33938  Biso   1.000  Ag
  Ag10     1.0000 0.04000  0.23210  0.24420  Biso   1.000  Ag
  Ag11     1.0000 0.54200  0.50300  0.50340  Biso   1.000  Ag
  C1       1.0000 0.72910  0.34060  0.29550  Biso   1.000  C
  C2       1.0000 0.70170  0.41030  0.27320  Biso   1.000  C
  C3       1.0000 0.67230  0.50080  0.25190  Biso   1.000  C
  C4       1.0000 0.69120  0.58850  0.27280  Biso   1.000  C
  H1       1.0000 0.72110  0.58860  0.30080  Biso   1.000  H
  C5       1.0000 0.66670  0.67460  0.25270  Biso   1.000  C
  H2       1.0000 0.67680  0.73240  0.26750  Biso   1.000  H
  C6       1.0000 0.62790  0.67680  0.21170  Biso   1.000  C
  H3       1.0000 0.61350  0.73620  0.19840  Biso   1.000  H
  C7       1.0000 0.60980  0.59330  0.18950  Biso   1.000  C
  H4       1.0000 0.58440  0.59610  0.16110  Biso   1.000  H
  C8       1.0000 0.62940  0.50190  0.20940  Biso   1.000  C
  C9       1.0000 0.60940  0.41410  0.18510  Biso   1.000  C
  C10      1.0000 0.58910  0.34640  0.16180  Biso   1.000  C
  C11      1.0000 0.07560  0.31620  0.31020  Biso   1.000  C
  C12      1.0000 0.05650  0.39250  0.29130  Biso   1.000  C
  C13      1.0000 0.03040  0.48230  0.26960  Biso   1.000  C
  C14      1.0000 0.06240  0.57220  0.28970  Biso   1.000  C
  H5       1.0000 0.10430  0.57320  0.31620  Biso   1.000  H
  C15      1.0000 0.03040  0.65730  0.26940  Biso   1.000  C
  H6       1.0000 0.05060  0.71610  0.28240  Biso   1.000  H
  O1       1.0000 0.68920  0.50110  0.38010  Biso   1.000  O
  O2       1.0000 0.56860  0.50520  0.42750  Biso   1.000  O
  C16      1.0000 0.64660  0.53690  0.40900  Biso   1.000  C
  C17      1.0000 0.69870  0.63420  0.42520  Biso   1.000  C
  F1       1.0000 0.64450  0.70190  0.40470  Biso   1.000  F
  F2       1.0000 0.67500  0.65770  0.46170  Biso   1.000  F
  F3       1.0000 0.79700  0.64950  0.42140  Biso   1.000  F
  O3       1.0000 0.88700  0.10040  0.27100  Biso   1.000  O
  O4       1.0000 0.74280  0.10480  0.21930  Biso   1.000  O
  C18      1.0000 0.81430  0.06290  0.24440  Biso   1.000  C
  C19      1.0000 0.80820  0.95480  0.24270  Biso   1.000  C
  F4       1.0000 0.82830  0.92060  0.20720  Biso   1.000  F
  F5       1.0000 0.87280  0.90920  0.27260  Biso   1.000  F
  F6       1.0000 0.70310  0.92240  0.24720  Biso   1.000  F
  O5       1.0000 0.16720  0.48880  0.39700  Biso   1.000  O
  O6       1.0000 0.31680  0.47040  0.44690  Biso   1.000  O
  C20      1.0000 0.21820  0.49930  0.43260  Biso   1.000  C
  C21      1.0000 0.14970  0.54520  0.46410  Biso   1.000  C
  F7       1.0000 0.09070  0.48180  0.47850  Biso   1.000  F
  F8       1.0000 0.07080  0.60580  0.44660  Biso   1.000  F
  F9       1.0000 0.20810  0.59110  0.49300  Biso   1.000  F
  O7       1.0000 0.71070  0.25270  0.40900  Biso   1.000  O
  O8       1.0000 0.57600  0.14350  0.41740  Biso   1.000  O
  C22      1.0000 0.67420  0.17900  0.42410  Biso   1.000  C
  C23      1.0000 0.76330  0.12500  0.45510  Biso   1.000  C
  F10      1.0000 0.80100  0.18010  0.48630  Biso   1.000  F
  F11      1.0000 0.85370  0.10340  0.43860  Biso   1.000  F
  F12      1.0000 0.72200  0.04810  0.47030  Biso   1.000  F
  O9       1.0000 0.45470  0.33940  0.01440  Biso   1.000  O
  N1       1.0000 0.02290  0.04800  0.36580  Biso   1.000  N
  C24      1.0000 0.99500  0.97940  0.37990  Biso   1.000  C
  C25      1.0000 0.95850  0.88970  0.39780  Biso   1.000  C
  H7       1.0000 0.00440  0.87870  0.42420  Biso   1.000  H
  H8       1.0000 0.96840  0.83660  0.37950  Biso   1.000  H
  H9       1.0000 0.87870  0.89460  0.40160  Biso   1.000  H
  Ag12     1.0000 0.25603  0.19849  0.18205  Biso   1.000  Ag
  Ag13     1.0000 0.38208  0.35310  0.14592  Biso   1.000  Ag
  Ag14     1.0000 0.31764  0.26300  0.27327  Biso   1.000  Ag
  Ag15     1.0000 0.44019  0.20496  0.36441  Biso   1.000  Ag
  Ag16     1.0000 0.77355  0.34773  0.13695  Biso   1.000  Ag
  Ag17     1.0000 0.10552  0.36002  0.15897  Biso   1.000  Ag
  Ag18     1.0000 0.44460  0.36270  0.41355  Biso   1.000  Ag
  Ag19     1.0000 0.55830  0.38550  0.08550  Biso   1.000  Ag
  Ag20     1.0000 0.93274  0.18135  0.16062  Biso   1.000  Ag
  Ag21     1.0000 0.96000  0.23210  0.25580  Biso   1.000  Ag
  Ag22     1.0000 0.45800  0.50300  0.99660  Biso   1.000  Ag
  C26      1.0000 0.27090  0.34060  0.20450  Biso   1.000  C
  C27      1.0000 0.29830  0.41030  0.22680  Biso   1.000  C
  C28      1.0000 0.32770  0.50080  0.24810  Biso   1.000  C
  C29      1.0000 0.30880  0.58850  0.22720  Biso   1.000  C
  H10      1.0000 0.27890  0.58860  0.19920  Biso   1.000  H
  C30      1.0000 0.33330  0.67460  0.24730  Biso   1.000  C
  H11      1.0000 0.32320  0.73240  0.23250  Biso   1.000  H
  C31      1.0000 0.37210  0.67680  0.28830  Biso   1.000  C
  H12      1.0000 0.38650  0.73620  0.30160  Biso   1.000  H
  C32      1.0000 0.39020  0.59330  0.31050  Biso   1.000  C
  H13      1.0000 0.41560  0.59610  0.33890  Biso   1.000  H
  C33      1.0000 0.37060  0.50190  0.29060  Biso   1.000  C
  C34      1.0000 0.39060  0.41410  0.31490  Biso   1.000  C
  C35      1.0000 0.41090  0.34640  0.33820  Biso   1.000  C
  C36      1.0000 0.92440  0.31620  0.18980  Biso   1.000  C
  C37      1.0000 0.94350  0.39250  0.20870  Biso   1.000  C
  C38      1.0000 0.96960  0.48230  0.23040  Biso   1.000  C
  C39      1.0000 0.93760  0.57220  0.21030  Biso   1.000  C
  H14      1.0000 0.89570  0.57320  0.18380  Biso   1.000  H
  C40      1.0000 0.96960  0.65730  0.23060  Biso   1.000  C
  H15      1.0000 0.94940  0.71610  0.21760  Biso   1.000  H
  O10      1.0000 0.31080  0.50110  0.11990  Biso   1.000  O
  O11      1.0000 0.43140  0.50520  0.07250  Biso   1.000  O
  C41      1.0000 0.35340  0.53690  0.09100  Biso   1.000  C
  C42      1.0000 0.30130  0.63420  0.07480  Biso   1.000  C
  F13      1.0000 0.35550  0.70190  0.09530  Biso   1.000  F
  F14      1.0000 0.32500  0.65770  0.03830  Biso   1.000  F
  F15      1.0000 0.20300  0.64950  0.07860  Biso   1.000  F
  O12      1.0000 0.11300  0.10040  0.22900  Biso   1.000  O
  O13      1.0000 0.25720  0.10480  0.28070  Biso   1.000  O
  C43      1.0000 0.18570  0.06290  0.25560  Biso   1.000  C
  C44      1.0000 0.19180  0.95480  0.25730  Biso   1.000  C
  F16      1.0000 0.17170  0.92060  0.29280  Biso   1.000  F
  F17      1.0000 0.12720  0.90920  0.22740  Biso   1.000  F
  F18      1.0000 0.29690  0.92240  0.25280  Biso   1.000  F
  O14      1.0000 0.83280  0.48880  0.10300  Biso   1.000  O
  O15      1.0000 0.68320  0.47040  0.05310  Biso   1.000  O
  C45      1.0000 0.78180  0.49930  0.06740  Biso   1.000  C
  C46      1.0000 0.85030  0.54520  0.03590  Biso   1.000  C
  F19      1.0000 0.90930  0.48180  0.02150  Biso   1.000  F
  F20      1.0000 0.92920  0.60580  0.05340  Biso   1.000  F
  F21      1.0000 0.79190  0.59110  0.00700  Biso   1.000  F
  O16      1.0000 0.28930  0.25270  0.09100  Biso   1.000  O
  O17      1.0000 0.42400  0.14350  0.08260  Biso   1.000  O
  C47      1.0000 0.32580  0.17900  0.07590  Biso   1.000  C
  C48      1.0000 0.23670  0.12500  0.04490  Biso   1.000  C
  F22      1.0000 0.19900  0.18010  0.01370  Biso   1.000  F
  F23      1.0000 0.14630  0.10340  0.06140  Biso   1.000  F
  F24      1.0000 0.27800  0.04810  0.02970  Biso   1.000  F
  O18      1.0000 0.54530  0.33940  0.48560  Biso   1.000  O
  N2       1.0000 0.97710  0.04800  0.13420  Biso   1.000  N
  C49      1.0000 0.00500  0.97940  0.12010  Biso   1.000  C
  C50      1.0000 0.04150  0.88970  0.10220  Biso   1.000  C
  H16      1.0000 0.99560  0.87870  0.07580  Biso   1.000  H
  H17      1.0000 0.03160  0.83660  0.12050  Biso   1.000  H
  H18      1.0000 0.12130  0.89460  0.09840  Biso   1.000  H
  Ag23     1.0000 0.25603  0.80151  0.68205  Biso   1.000  Ag
  Ag24     1.0000 0.38208  0.64690  0.64592  Biso   1.000  Ag
  Ag25     1.0000 0.31764  0.73700  0.77327  Biso   1.000  Ag
  Ag26     1.0000 0.44019  0.79504  0.86441  Biso   1.000  Ag
  Ag27     1.0000 0.77355  0.65227  0.63695  Biso   1.000  Ag
  Ag28     1.0000 0.10552  0.63998  0.65897  Biso   1.000  Ag
  Ag29     1.0000 0.44460  0.63730  0.91355  Biso   1.000  Ag
  Ag30     1.0000 0.55830  0.61450  0.58550  Biso   1.000  Ag
  Ag31     1.0000 0.93274  0.81865  0.66062  Biso   1.000  Ag
  Ag32     1.0000 0.96000  0.76790  0.75580  Biso   1.000  Ag
  Ag33     1.0000 0.45800  0.49700  0.49660  Biso   1.000  Ag
  C51      1.0000 0.27090  0.65940  0.70450  Biso   1.000  C
  C52      1.0000 0.29830  0.58970  0.72680  Biso   1.000  C
  C53      1.0000 0.32770  0.49920  0.74810  Biso   1.000  C
  C54      1.0000 0.30880  0.41150  0.72720  Biso   1.000  C
  H19      1.0000 0.27890  0.41140  0.69920  Biso   1.000  H
  C55      1.0000 0.33330  0.32540  0.74730  Biso   1.000  C
  H20      1.0000 0.32320  0.26760  0.73250  Biso   1.000  H
  C56      1.0000 0.37210  0.32320  0.78830  Biso   1.000  C
  H21      1.0000 0.38650  0.26380  0.80160  Biso   1.000  H
  C57      1.0000 0.39020  0.40670  0.81050  Biso   1.000  C
  H22      1.0000 0.41560  0.40390  0.83890  Biso   1.000  H
  C58      1.0000 0.37060  0.49810  0.79060  Biso   1.000  C
  C59      1.0000 0.39060  0.58590  0.81490  Biso   1.000  C
  C60      1.0000 0.41090  0.65360  0.83820  Biso   1.000  C
  C61      1.0000 0.92440  0.68380  0.68980  Biso   1.000  C
  C62      1.0000 0.94350  0.60750  0.70870  Biso   1.000  C
  C63      1.0000 0.96960  0.51770  0.73040  Biso   1.000  C
  C64      1.0000 0.93760  0.42780  0.71030  Biso   1.000  C
  H23      1.0000 0.89570  0.42680  0.68380  Biso   1.000  H
  C65      1.0000 0.96960  0.34270  0.73060  Biso   1.000  C
  H24      1.0000 0.94940  0.28390  0.71760  Biso   1.000  H
  O19      1.0000 0.31080  0.49890  0.61990  Biso   1.000  O
  O20      1.0000 0.43140  0.49480  0.57250  Biso   1.000  O
  C66      1.0000 0.35340  0.46310  0.59100  Biso   1.000  C
  C67      1.0000 0.30130  0.36580  0.57480  Biso   1.000  C
  F25      1.0000 0.35550  0.29810  0.59530  Biso   1.000  F
  F26      1.0000 0.32500  0.34230  0.53830  Biso   1.000  F
  F27      1.0000 0.20300  0.35050  0.57860  Biso   1.000  F
  O21      1.0000 0.11300  0.89960  0.72900  Biso   1.000  O
  O22      1.0000 0.25720  0.89520  0.78070  Biso   1.000  O
  C68      1.0000 0.18570  0.93710  0.75560  Biso   1.000  C
  C69      1.0000 0.19180  0.04520  0.75730  Biso   1.000  C
  F28      1.0000 0.17170  0.07940  0.79280  Biso   1.000  F
  F29      1.0000 0.12720  0.09080  0.72740  Biso   1.000  F
  F30      1.0000 0.29690  0.07760  0.75280  Biso   1.000  F
  O23      1.0000 0.83280  0.51120  0.60300  Biso   1.000  O
  O24      1.0000 0.68320  0.52960  0.55310  Biso   1.000  O
  C70      1.0000 0.78180  0.50070  0.56740  Biso   1.000  C
  C71      1.0000 0.85030  0.45480  0.53590  Biso   1.000  C
  F31      1.0000 0.90930  0.51820  0.52150  Biso   1.000  F
  F32      1.0000 0.92920  0.39420  0.55340  Biso   1.000  F
  F33      1.0000 0.79190  0.40890  0.50700  Biso   1.000  F
  O25      1.0000 0.28930  0.74730  0.59100  Biso   1.000  O
  O26      1.0000 0.42400  0.85650  0.58260  Biso   1.000  O
  C72      1.0000 0.32580  0.82100  0.57590  Biso   1.000  C
  C73      1.0000 0.23670  0.87500  0.54490  Biso   1.000  C
  F34      1.0000 0.19900  0.81990  0.51370  Biso   1.000  F
  F35      1.0000 0.14630  0.89660  0.56140  Biso   1.000  F
  F36      1.0000 0.27800  0.95190  0.52970  Biso   1.000  F
  O27      1.0000 0.54530  0.66060  0.98560  Biso   1.000  O
  N3       1.0000 0.97710  0.95200  0.63420  Biso   1.000  N
  C74      1.0000 0.00500  0.02060  0.62010  Biso   1.000  C
  C75      1.0000 0.04150  0.11030  0.60220  Biso   1.000  C
  H25      1.0000 0.99560  0.12130  0.57580  Biso   1.000  H
  H26      1.0000 0.03160  0.16340  0.62050  Biso   1.000  H
  H27      1.0000 0.12130  0.10540  0.59840  Biso   1.000  H
  Ag34     1.0000 0.74397  0.80151  0.81795  Biso   1.000  Ag
  Ag35     1.0000 0.61792  0.64690  0.85408  Biso   1.000  Ag
  Ag36     1.0000 0.68236  0.73700  0.72673  Biso   1.000  Ag
  Ag37     1.0000 0.55981  0.79504  0.63559  Biso   1.000  Ag
  Ag38     1.0000 0.22645  0.65227  0.86305  Biso   1.000  Ag
  Ag39     1.0000 0.89448  0.63998  0.84103  Biso   1.000  Ag
  Ag40     1.0000 0.55540  0.63730  0.58645  Biso   1.000  Ag
  Ag41     1.0000 0.44170  0.61450  0.91450  Biso   1.000  Ag
  Ag42     1.0000 0.06726  0.81865  0.83938  Biso   1.000  Ag
  Ag43     1.0000 0.04000  0.76790  0.74420  Biso   1.000  Ag
  Ag44     1.0000 0.54200  0.49700  0.00340  Biso   1.000  Ag
  C76      1.0000 0.72910  0.65940  0.79550  Biso   1.000  C
  C77      1.0000 0.70170  0.58970  0.77320  Biso   1.000  C
  C78      1.0000 0.67230  0.49920  0.75190  Biso   1.000  C
  C79      1.0000 0.69120  0.41150  0.77280  Biso   1.000  C
  H28      1.0000 0.72110  0.41140  0.80080  Biso   1.000  H
  C80      1.0000 0.66670  0.32540  0.75270  Biso   1.000  C
  H29      1.0000 0.67680  0.26760  0.76750  Biso   1.000  H
  C81      1.0000 0.62790  0.32320  0.71170  Biso   1.000  C
  H30      1.0000 0.61350  0.26380  0.69840  Biso   1.000  H
  C82      1.0000 0.60980  0.40670  0.68950  Biso   1.000  C
  H31      1.0000 0.58440  0.40390  0.66110  Biso   1.000  H
  C83      1.0000 0.62940  0.49810  0.70940  Biso   1.000  C
  C84      1.0000 0.60940  0.58590  0.68510  Biso   1.000  C
  C85      1.0000 0.58910  0.65360  0.66180  Biso   1.000  C
  C86      1.0000 0.07560  0.68380  0.81020  Biso   1.000  C
  C87      1.0000 0.05650  0.60750  0.79130  Biso   1.000  C
  C88      1.0000 0.03040  0.51770  0.76960  Biso   1.000  C
  C89      1.0000 0.06240  0.42780  0.78970  Biso   1.000  C
  H32      1.0000 0.10430  0.42680  0.81620  Biso   1.000  H
  C90      1.0000 0.03040  0.34270  0.76940  Biso   1.000  C
  H33      1.0000 0.05060  0.28390  0.78240  Biso   1.000  H
  O28      1.0000 0.68920  0.49890  0.88010  Biso   1.000  O
  O29      1.0000 0.56860  0.49480  0.92750  Biso   1.000  O
  C91      1.0000 0.64660  0.46310  0.90900  Biso   1.000  C
  C92      1.0000 0.69870  0.36580  0.92520  Biso   1.000  C
  F37      1.0000 0.64450  0.29810  0.90470  Biso   1.000  F
  F38      1.0000 0.67500  0.34230  0.96170  Biso   1.000  F
  F39      1.0000 0.79700  0.35050  0.92140  Biso   1.000  F
  O30      1.0000 0.88700  0.89960  0.77100  Biso   1.000  O
  O31      1.0000 0.74280  0.89520  0.71930  Biso   1.000  O
  C93      1.0000 0.81430  0.93710  0.74440  Biso   1.000  C
  C94      1.0000 0.80820  0.04520  0.74270  Biso   1.000  C
  F40      1.0000 0.82830  0.07940  0.70720  Biso   1.000  F
  F41      1.0000 0.87280  0.09080  0.77260  Biso   1.000  F
  F42      1.0000 0.70310  0.07760  0.74720  Biso   1.000  F
  O32      1.0000 0.16720  0.51120  0.89700  Biso   1.000  O
  O33      1.0000 0.31680  0.52960  0.94690  Biso   1.000  O
  C95      1.0000 0.21820  0.50070  0.93260  Biso   1.000  C
  C96      1.0000 0.14970  0.45480  0.96410  Biso   1.000  C
  F43      1.0000 0.09070  0.51820  0.97850  Biso   1.000  F
  F44      1.0000 0.07080  0.39420  0.94660  Biso   1.000  F
  F45      1.0000 0.20810  0.40890  0.99300  Biso   1.000  F
  O34      1.0000 0.71070  0.74730  0.90900  Biso   1.000  O
  O35      1.0000 0.57600  0.85650  0.91740  Biso   1.000  O
  C97      1.0000 0.67420  0.82100  0.92410  Biso   1.000  C
  C98      1.0000 0.76330  0.87500  0.95510  Biso   1.000  C
  F46      1.0000 0.80100  0.81990  0.98630  Biso   1.000  F
  F47      1.0000 0.85370  0.89660  0.93860  Biso   1.000  F
  F48      1.0000 0.72200  0.95190  0.97030  Biso   1.000  F
  O36      1.0000 0.45470  0.66060  0.51440  Biso   1.000  O
  N4       1.0000 0.02290  0.95200  0.86580  Biso   1.000  N
  C99      1.0000 0.99500  0.02060  0.87990  Biso   1.000  C
  C100     1.0000 0.95850  0.11030  0.89780  Biso   1.000  C
  H34      1.0000 0.00440  0.12130  0.92420  Biso   1.000  H
  H35      1.0000 0.96840  0.16340  0.87950  Biso   1.000  H
  H36      1.0000 0.87870  0.10540  0.90160  Biso   1.000  H
  Ag45     1.0000 0.00000  0.23450  0.25000  Biso   1.000  Ag
  Ag46     1.0000 0.00000  0.76550  0.75000  Biso   1.000  Ag
  Ag47     1.0000 0.50000  0.50000  0.50000  Biso   1.000  Ag
  Ag48     1.0000 0.50000  0.50000  0.00000  Biso   1.000  Ag
