data_image0
_cell_length_a       17.865
_cell_length_b       10.254
_cell_length_c       11.5701
_cell_angle_alpha    90
_cell_angle_beta     97.655
_cell_angle_gamma    90

_symmetry_space_group_name_H-M    "P 1"
_symmetry_int_tables_number       1

loop_
  _symmetry_equiv_pos_as_xyz
  'x, y, z'

loop_
  _atom_site_label
  _atom_site_occupancy
  _atom_site_fract_x
  _atom_site_fract_y
  _atom_site_fract_z
  _atom_site_thermal_displace_type
  _atom_site_B_iso_or_equiv
  _atom_site_type_symbol
  K1       1.0000 0.38145  0.09869  0.68575  Biso   1.000  K
  C1       1.0000 0.51290  0.35420  0.65470  Biso   1.000  C
  H1       1.0000 0.47520  0.33600  0.58700  Biso   1.000  H
  H2       1.0000 0.56320  0.33720  0.63290  Biso   1.000  H
  C2       1.0000 0.50730  0.48880  0.69050  Biso   1.000  C
  H3       1.0000 0.55450  0.53510  0.68370  Biso   1.000  H
  H4       1.0000 0.46620  0.53270  0.64080  Biso   1.000  H
  C3       1.0000 0.39927  0.01310  0.43640  Biso   1.000  C
  H5       1.0000 0.36810  0.06710  0.38490  Biso   1.000  H
  C4       1.0000 0.36760  0.90880  0.48740  Biso   1.000  C
  H6       1.0000 0.31580  0.89090  0.46880  Biso   1.000  H
  C5       1.0000 0.41130  0.83190  0.56450  Biso   1.000  C
  H7       1.0000 0.38940  0.76140  0.59970  Biso   1.000  H
  C6       1.0000 0.48760  0.85610  0.59190  Biso   1.000  C
  H8       1.0000 0.51650  0.80200  0.64630  Biso   1.000  H
  C7       1.0000 0.47677  0.04090  0.45920  Biso   1.000  C
  K2       1.0000 0.61855  0.09869  0.81425  Biso   1.000  K
  C8       1.0000 0.48710  0.35420  0.84530  Biso   1.000  C
  H9       1.0000 0.52480  0.33600  0.91300  Biso   1.000  H
  H10      1.0000 0.43680  0.33720  0.86710  Biso   1.000  H
  C9       1.0000 0.49270  0.48880  0.80950  Biso   1.000  C
  H11      1.0000 0.44550  0.53510  0.81630  Biso   1.000  H
  H12      1.0000 0.53380  0.53270  0.85920  Biso   1.000  H
  C10      1.0000 0.60073  0.01310  0.06360  Biso   1.000  C
  H13      1.0000 0.63190  0.06710  0.11510  Biso   1.000  H
  C11      1.0000 0.63240  0.90880  0.01260  Biso   1.000  C
  H14      1.0000 0.68420  0.89090  0.03120  Biso   1.000  H
  C12      1.0000 0.58870  0.83190  0.93550  Biso   1.000  C
  H15      1.0000 0.61060  0.76140  0.90030  Biso   1.000  H
  C13      1.0000 0.51240  0.85610  0.90810  Biso   1.000  C
  H16      1.0000 0.48350  0.80200  0.85370  Biso   1.000  H
  C14      1.0000 0.52323  0.04090  0.04080  Biso   1.000  C
  K3       1.0000 0.61855  0.90131  0.31425  Biso   1.000  K
  C15      1.0000 0.48710  0.64580  0.34530  Biso   1.000  C
  H17      1.0000 0.52480  0.66400  0.41300  Biso   1.000  H
  H18      1.0000 0.43680  0.66280  0.36710  Biso   1.000  H
  C16      1.0000 0.49270  0.51120  0.30950  Biso   1.000  C
  H19      1.0000 0.44550  0.46490  0.31630  Biso   1.000  H
  H20      1.0000 0.53380  0.46730  0.35920  Biso   1.000  H
  C17      1.0000 0.60073  0.98690  0.56360  Biso   1.000  C
  H21      1.0000 0.63190  0.93290  0.61510  Biso   1.000  H
  C18      1.0000 0.63240  0.09120  0.51260  Biso   1.000  C
  H22      1.0000 0.68420  0.10910  0.53120  Biso   1.000  H
  C19      1.0000 0.58870  0.16810  0.43550  Biso   1.000  C
  H23      1.0000 0.61060  0.23860  0.40030  Biso   1.000  H
  C20      1.0000 0.51240  0.14390  0.40810  Biso   1.000  C
  H24      1.0000 0.48350  0.19800  0.35370  Biso   1.000  H
  C21      1.0000 0.52323  0.95910  0.54080  Biso   1.000  C
  K4       1.0000 0.38145  0.90131  0.18575  Biso   1.000  K
  C22      1.0000 0.51290  0.64580  0.15470  Biso   1.000  C
  H25      1.0000 0.47520  0.66400  0.08700  Biso   1.000  H
  H26      1.0000 0.56320  0.66280  0.13290  Biso   1.000  H
  C23      1.0000 0.50730  0.51120  0.19050  Biso   1.000  C
  H27      1.0000 0.55450  0.46490  0.18370  Biso   1.000  H
  H28      1.0000 0.46620  0.46730  0.14080  Biso   1.000  H
  C24      1.0000 0.39927  0.98690  0.93640  Biso   1.000  C
  H29      1.0000 0.36810  0.93290  0.88490  Biso   1.000  H
  C25      1.0000 0.36760  0.09120  0.98740  Biso   1.000  C
  H30      1.0000 0.31580  0.10910  0.96880  Biso   1.000  H
  C26      1.0000 0.41130  0.16810  0.06450  Biso   1.000  C
  H31      1.0000 0.38940  0.23860  0.09970  Biso   1.000  H
  C27      1.0000 0.48760  0.14390  0.09190  Biso   1.000  C
  H32      1.0000 0.51650  0.19800  0.14630  Biso   1.000  H
  C28      1.0000 0.47677  0.95910  0.95920  Biso   1.000  C
  O1       1.0000 0.50000  0.27290  0.75000  Biso   1.000  O
  O2       1.0000 0.50000  0.72710  0.25000  Biso   1.000  O
  K5       1.0000 0.88145  0.59869  0.68575  Biso   1.000  K
  C29      1.0000 0.01290  0.85420  0.65470  Biso   1.000  C
  H33      1.0000 0.97520  0.83600  0.58700  Biso   1.000  H
  H34      1.0000 0.06320  0.83720  0.63290  Biso   1.000  H
  C30      1.0000 0.00730  0.98880  0.69050  Biso   1.000  C
  H35      1.0000 0.05450  0.03510  0.68370  Biso   1.000  H
  H36      1.0000 0.96620  0.03270  0.64080  Biso   1.000  H
  C31      1.0000 0.89927  0.51310  0.43640  Biso   1.000  C
  H37      1.0000 0.86810  0.56710  0.38490  Biso   1.000  H
  C32      1.0000 0.86760  0.40880  0.48740  Biso   1.000  C
  H38      1.0000 0.81580  0.39090  0.46880  Biso   1.000  H
  C33      1.0000 0.91130  0.33190  0.56450  Biso   1.000  C
  H39      1.0000 0.88940  0.26140  0.59970  Biso   1.000  H
  C34      1.0000 0.98760  0.35610  0.59190  Biso   1.000  C
  H40      1.0000 0.01650  0.30200  0.64630  Biso   1.000  H
  C35      1.0000 0.97677  0.54090  0.45920  Biso   1.000  C
  K6       1.0000 0.11855  0.59869  0.81425  Biso   1.000  K
  C36      1.0000 0.98710  0.85420  0.84530  Biso   1.000  C
  H41      1.0000 0.02480  0.83600  0.91300  Biso   1.000  H
  H42      1.0000 0.93680  0.83720  0.86710  Biso   1.000  H
  C37      1.0000 0.99270  0.98880  0.80950  Biso   1.000  C
  H43      1.0000 0.94550  0.03510  0.81630  Biso   1.000  H
  H44      1.0000 0.03380  0.03270  0.85920  Biso   1.000  H
  C38      1.0000 0.10073  0.51310  0.06360  Biso   1.000  C
  H45      1.0000 0.13190  0.56710  0.11510  Biso   1.000  H
  C39      1.0000 0.13240  0.40880  0.01260  Biso   1.000  C
  H46      1.0000 0.18420  0.39090  0.03120  Biso   1.000  H
  C40      1.0000 0.08870  0.33190  0.93550  Biso   1.000  C
  H47      1.0000 0.11060  0.26140  0.90030  Biso   1.000  H
  C41      1.0000 0.01240  0.35610  0.90810  Biso   1.000  C
  H48      1.0000 0.98350  0.30200  0.85370  Biso   1.000  H
  C42      1.0000 0.02323  0.54090  0.04080  Biso   1.000  C
  K7       1.0000 0.11855  0.40131  0.31425  Biso   1.000  K
  C43      1.0000 0.98710  0.14580  0.34530  Biso   1.000  C
  H49      1.0000 0.02480  0.16400  0.41300  Biso   1.000  H
  H50      1.0000 0.93680  0.16280  0.36710  Biso   1.000  H
  C44      1.0000 0.99270  0.01120  0.30950  Biso   1.000  C
  H51      1.0000 0.94550  0.96490  0.31630  Biso   1.000  H
  H52      1.0000 0.03380  0.96730  0.35920  Biso   1.000  H
  C45      1.0000 0.10073  0.48690  0.56360  Biso   1.000  C
  H53      1.0000 0.13190  0.43290  0.61510  Biso   1.000  H
  C46      1.0000 0.13240  0.59120  0.51260  Biso   1.000  C
  H54      1.0000 0.18420  0.60910  0.53120  Biso   1.000  H
  C47      1.0000 0.08870  0.66810  0.43550  Biso   1.000  C
  H55      1.0000 0.11060  0.73860  0.40030  Biso   1.000  H
  C48      1.0000 0.01240  0.64390  0.40810  Biso   1.000  C
  H56      1.0000 0.98350  0.69800  0.35370  Biso   1.000  H
  C49      1.0000 0.02323  0.45910  0.54080  Biso   1.000  C
  K8       1.0000 0.88145  0.40131  0.18575  Biso   1.000  K
  C50      1.0000 0.01290  0.14580  0.15470  Biso   1.000  C
  H57      1.0000 0.97520  0.16400  0.08700  Biso   1.000  H
  H58      1.0000 0.06320  0.16280  0.13290  Biso   1.000  H
  C51      1.0000 0.00730  0.01120  0.19050  Biso   1.000  C
  H59      1.0000 0.05450  0.96490  0.18370  Biso   1.000  H
  H60      1.0000 0.96620  0.96730  0.14080  Biso   1.000  H
  C52      1.0000 0.89927  0.48690  0.93640  Biso   1.000  C
  H61      1.0000 0.86810  0.43290  0.88490  Biso   1.000  H
  C53      1.0000 0.86760  0.59120  0.98740  Biso   1.000  C
  H62      1.0000 0.81580  0.60910  0.96880  Biso   1.000  H
  C54      1.0000 0.91130  0.66810  0.06450  Biso   1.000  C
  H63      1.0000 0.88940  0.73860  0.09970  Biso   1.000  H
  C55      1.0000 0.98760  0.64390  0.09190  Biso   1.000  C
  H64      1.0000 0.01650  0.69800  0.14630  Biso   1.000  H
  C56      1.0000 0.97677  0.45910  0.95920  Biso   1.000  C
  O3       1.0000 0.00000  0.77290  0.75000  Biso   1.000  O
  O4       1.0000 0.00000  0.22710  0.25000  Biso   1.000  O
