data_image0
_cell_length_a       6.8045
_cell_length_b       9.1648
_cell_length_c       14.8222
_cell_angle_alpha    103.797
_cell_angle_beta     100.792
_cell_angle_gamma    101.415

_symmetry_space_group_name_H-M    "P 1"
_symmetry_int_tables_number       1

loop_
  _symmetry_equiv_pos_as_xyz
  'x, y, z'

loop_
  _atom_site_label
  _atom_site_occupancy
  _atom_site_fract_x
  _atom_site_fract_y
  _atom_site_fract_z
  _atom_site_thermal_displace_type
  _atom_site_B_iso_or_equiv
  _atom_site_type_symbol
  Mn1      1.0000 0.69570  0.44213  0.30432  Biso   1.000  Mn
  N1       1.0000 0.47260  0.22770  0.18880  Biso   1.000  N
  O1       1.0000 0.46700  0.01250  0.35780  Biso   1.000  O
  O2       1.0000 0.63360  0.25540  0.37380  Biso   1.000  O
  O3       1.0000 0.14930  0.29620  0.66910  Biso   1.000  O
  O4       1.0000 0.32430  0.43750  0.81260  Biso   1.000  O
  O5       1.0000 0.02880  0.62090  0.71830  Biso   1.000  O
  O6       1.0000 0.84890  0.71630  0.61640  Biso   1.000  O
  C1       1.0000 0.51770  0.12560  0.32530  Biso   1.000  C
  C2       1.0000 0.43370  0.10120  0.22040  Biso   1.000  C
  C3       1.0000 0.32380  0.95610  0.16060  Biso   1.000  C
  H1       1.0000 0.29740  0.87110  0.18460  Biso   1.000  H
  C4       1.0000 0.25400  0.94100  0.06400  Biso   1.000  C
  H2       1.0000 0.17960  0.84470  0.02210  Biso   1.000  H
  C5       1.0000 0.29530  0.07080  0.02890  Biso   1.000  C
  C6       1.0000 0.40520  0.20910  0.09530  Biso   1.000  C
  H3       1.0000 0.43470  0.29610  0.07340  Biso   1.000  H
  C7       1.0000 0.22430  0.05470  0.92550  Biso   1.000  C
  C8       1.0000 0.13600  0.90980  0.85860  Biso   1.000  C
  H4       1.0000 0.12430  0.82150  0.87980  Biso   1.000  H
  C9       1.0000 0.06440  0.89150  0.76070  Biso   1.000  C
  C10      1.0000 0.08510  0.02460  0.72880  Biso   1.000  C
  H5       1.0000 0.03190  0.01610  0.66470  Biso   1.000  H
  C11      1.0000 0.18400  0.16770  0.79240  Biso   1.000  C
  C12      1.0000 0.25010  0.18420  0.88880  Biso   1.000  C
  H6       1.0000 0.31300  0.28280  0.93060  Biso   1.000  H
  C13      1.0000 0.97270  0.73370  0.69370  Biso   1.000  C
  C14      1.0000 0.22000  0.30920  0.75670  Biso   1.000  C
  Mn2      1.0000 0.30430  0.55787  0.69568  Biso   1.000  Mn
  N2       1.0000 0.52740  0.77230  0.81120  Biso   1.000  N
  O7       1.0000 0.53300  0.98750  0.64220  Biso   1.000  O
  O8       1.0000 0.36640  0.74460  0.62620  Biso   1.000  O
  O9       1.0000 0.85070  0.70380  0.33090  Biso   1.000  O
  O10      1.0000 0.67570  0.56250  0.18740  Biso   1.000  O
  O11      1.0000 0.97120  0.37910  0.28170  Biso   1.000  O
  O12      1.0000 0.15110  0.28370  0.38360  Biso   1.000  O
  C15      1.0000 0.48230  0.87440  0.67470  Biso   1.000  C
  C16      1.0000 0.56630  0.89880  0.77960  Biso   1.000  C
  C17      1.0000 0.67620  0.04390  0.83940  Biso   1.000  C
  H7       1.0000 0.70260  0.12890  0.81540  Biso   1.000  H
  C18      1.0000 0.74600  0.05900  0.93600  Biso   1.000  C
  H8       1.0000 0.82040  0.15530  0.97790  Biso   1.000  H
  C19      1.0000 0.70470  0.92920  0.97110  Biso   1.000  C
  C20      1.0000 0.59480  0.79090  0.90470  Biso   1.000  C
  H9       1.0000 0.56530  0.70390  0.92660  Biso   1.000  H
  C21      1.0000 0.77570  0.94530  0.07450  Biso   1.000  C
  C22      1.0000 0.86400  0.09020  0.14140  Biso   1.000  C
  H10      1.0000 0.87570  0.17850  0.12020  Biso   1.000  H
  C23      1.0000 0.93560  0.10850  0.23930  Biso   1.000  C
  C24      1.0000 0.91490  0.97540  0.27120  Biso   1.000  C
  H11      1.0000 0.96810  0.98390  0.33530  Biso   1.000  H
  C25      1.0000 0.81600  0.83230  0.20760  Biso   1.000  C
  C26      1.0000 0.74990  0.81580  0.11120  Biso   1.000  C
  H12      1.0000 0.68700  0.71720  0.06940  Biso   1.000  H
  C27      1.0000 0.02730  0.26630  0.30630  Biso   1.000  C
  C28      1.0000 0.78000  0.69080  0.24330  Biso   1.000  C
  Mn3      1.0000 0.50000  0.00000  0.50000  Biso   1.000  Mn
