data_image0
_cell_length_a       22.0951
_cell_length_b       22.0951
_cell_length_c       13.0878
_cell_angle_alpha    90
_cell_angle_beta     90
_cell_angle_gamma    90

_symmetry_space_group_name_H-M    "P 1"
_symmetry_int_tables_number       1

loop_
  _symmetry_equiv_pos_as_xyz
  'x, y, z'

loop_
  _atom_site_label
  _atom_site_occupancy
  _atom_site_fract_x
  _atom_site_fract_y
  _atom_site_fract_z
  _atom_site_thermal_displace_type
  _atom_site_B_iso_or_equiv
  _atom_site_type_symbol
  Mn1      1.0000 0.97941  0.77874  0.73248  Biso   1.000  Mn
  Cl1      1.0000 0.07201  0.72378  0.74276  Biso   1.000  Cl
  Cl2      1.0000 0.87580  0.72827  0.75118  Biso   1.000  Cl
  N1       1.0000 0.95981  0.78160  0.56573  Biso   1.000  N
  N2       1.0000 0.90738  0.79817  0.42190  Biso   1.000  N
  N3       1.0000 0.97950  0.13073  0.30061  Biso   1.000  N
  N4       1.0000 0.91364  0.05931  0.34887  Biso   1.000  N
  N5       1.0000 0.96469  0.81723  0.88748  Biso   1.000  N
  N6       1.0000 0.91803  0.88548  0.98620  Biso   1.000  N
  C1       1.0000 0.00056  0.78805  0.48400  Biso   1.000  C
  C2       1.0000 0.06351  0.78477  0.48270  Biso   1.000  C
  H1       1.0000 0.08600  0.77810  0.54360  Biso   1.000  H
  C3       1.0000 0.09211  0.79152  0.38930  Biso   1.000  C
  H2       1.0000 0.13500  0.78970  0.38610  Biso   1.000  H
  C4       1.0000 0.05889  0.80098  0.29940  Biso   1.000  C
  H3       1.0000 0.07990  0.80500  0.23640  Biso   1.000  H
  C5       1.0000 0.99695  0.80462  0.29970  Biso   1.000  C
  H4       1.0000 0.97470  0.81130  0.23860  Biso   1.000  H
  C6       1.0000 0.96807  0.79811  0.39340  Biso   1.000  C
  C7       1.0000 0.90578  0.78803  0.52430  Biso   1.000  C
  H5       1.0000 0.86920  0.78580  0.56240  Biso   1.000  H
  C8       1.0000 0.85404  0.80198  0.35420  Biso   1.000  C
  H6       1.0000 0.85560  0.76860  0.30390  Biso   1.000  H
  H7       1.0000 0.81690  0.79690  0.39560  Biso   1.000  H
  C9       1.0000 0.85097  0.86217  0.29750  Biso   1.000  C
  C10      1.0000 0.84456  0.91583  0.35410  Biso   1.000  C
  C11      1.0000 0.83167  0.91340  0.46780  Biso   1.000  C
  H8       1.0000 0.80590  0.94770  0.48700  Biso   1.000  H
  H9       1.0000 0.81090  0.87540  0.48420  Biso   1.000  H
  H10      1.0000 0.86990  0.91550  0.50570  Biso   1.000  H
  C12      1.0000 0.84995  0.97156  0.30360  Biso   1.000  C
  C13      1.0000 0.85717  0.97408  0.19760  Biso   1.000  C
  C14      1.0000 0.86063  0.03467  0.14290  Biso   1.000  C
  H11      1.0000 0.90310  0.04520  0.13080  Biso   1.000  H
  H12      1.0000 0.83930  0.03190  0.07730  Biso   1.000  H
  H13      1.0000 0.84170  0.06590  0.18520  Biso   1.000  H
  C15      1.0000 0.85990  0.92024  0.14080  Biso   1.000  C
  C16      1.0000 0.85591  0.86413  0.19100  Biso   1.000  C
  C17      1.0000 0.85342  0.80607  0.12890  Biso   1.000  C
  H14      1.0000 0.82920  0.77590  0.16540  Biso   1.000  H
  H15      1.0000 0.83490  0.81440  0.06230  Biso   1.000  H
  H16      1.0000 0.89450  0.79050  0.11890  Biso   1.000  H
  C18      1.0000 0.01097  0.07689  0.31990  Biso   1.000  C
  C19      1.0000 0.07244  0.06441  0.31260  Biso   1.000  C
  H17      1.0000 0.10050  0.09460  0.29190  Biso   1.000  H
  C20      1.0000 0.09116  0.00657  0.33660  Biso   1.000  C
  H18      1.0000 0.13290  0.99670  0.33140  Biso   1.000  H
  C21      1.0000 0.05042  0.96212  0.36850  Biso   1.000  C
  H19      1.0000 0.06510  0.92300  0.38520  Biso   1.000  H
  C22      1.0000 0.98914  0.97390  0.37610  Biso   1.000  C
  H20      1.0000 0.96130  0.94370  0.39780  Biso   1.000  H
  C23      1.0000 0.97012  0.03195  0.35050  Biso   1.000  C
  C24      1.0000 0.92282  0.11734  0.31860  Biso   1.000  C
  H21      1.0000 0.89090  0.14580  0.31110  Biso   1.000  H
  C25      1.0000 0.85454  0.02988  0.36630  Biso   1.000  C
  H22      1.0000 0.84990  0.02040  0.43980  Biso   1.000  H
  H23      1.0000 0.82160  0.05780  0.34640  Biso   1.000  H
  C26      1.0000 0.00722  0.84339  0.95440  Biso   1.000  C
  C27      1.0000 0.06873  0.83186  0.96490  Biso   1.000  C
  H24      1.0000 0.08870  0.80250  0.92390  Biso   1.000  H
  C28      1.0000 0.09960  0.86508  0.03770  Biso   1.000  C
  H25      1.0000 0.14160  0.85780  0.04730  Biso   1.000  H
  C29      1.0000 0.07105  0.90896  0.09750  Biso   1.000  C
  H26      1.0000 0.09420  0.93130  0.14570  Biso   1.000  H
  C30      1.0000 0.00971  0.92051  0.08810  Biso   1.000  C
  H27      1.0000 0.98990  0.94980  0.12930  Biso   1.000  H
  C31      1.0000 0.97869  0.88691  0.01520  Biso   1.000  C
  C32      1.0000 0.91345  0.84396  0.91050  Biso   1.000  C
  H28      1.0000 0.87640  0.83500  0.87710  Biso   1.000  H
  C33      1.0000 0.86806  0.92280  0.02540  Biso   1.000  C
  H29      1.0000 0.87520  0.96540  0.00520  Biso   1.000  H
  H30      1.0000 0.83000  0.90950  0.99250  Biso   1.000  H
  Mn2      1.0000 0.02059  0.22126  0.26752  Biso   1.000  Mn
  Cl3      1.0000 0.92799  0.27622  0.25724  Biso   1.000  Cl
  Cl4      1.0000 0.12420  0.27173  0.24882  Biso   1.000  Cl
  N7       1.0000 0.04019  0.21840  0.43427  Biso   1.000  N
  N8       1.0000 0.09262  0.20183  0.57810  Biso   1.000  N
  N9       1.0000 0.02050  0.86927  0.69939  Biso   1.000  N
  N10      1.0000 0.08636  0.94069  0.65113  Biso   1.000  N
  N11      1.0000 0.03531  0.18277  0.11252  Biso   1.000  N
  N12      1.0000 0.08197  0.11452  0.01380  Biso   1.000  N
  C34      1.0000 0.99944  0.21195  0.51600  Biso   1.000  C
  C35      1.0000 0.93649  0.21523  0.51730  Biso   1.000  C
  H31      1.0000 0.91400  0.22190  0.45640  Biso   1.000  H
  C36      1.0000 0.90789  0.20848  0.61070  Biso   1.000  C
  H32      1.0000 0.86500  0.21030  0.61390  Biso   1.000  H
  C37      1.0000 0.94111  0.19902  0.70060  Biso   1.000  C
  H33      1.0000 0.92010  0.19500  0.76360  Biso   1.000  H
  C38      1.0000 0.00305  0.19538  0.70030  Biso   1.000  C
  H34      1.0000 0.02530  0.18870  0.76140  Biso   1.000  H
  C39      1.0000 0.03193  0.20189  0.60660  Biso   1.000  C
  C40      1.0000 0.09422  0.21197  0.47570  Biso   1.000  C
  H35      1.0000 0.13080  0.21420  0.43760  Biso   1.000  H
  C41      1.0000 0.14596  0.19802  0.64580  Biso   1.000  C
  H36      1.0000 0.14440  0.23140  0.69610  Biso   1.000  H
  H37      1.0000 0.18310  0.20310  0.60440  Biso   1.000  H
  C42      1.0000 0.14903  0.13783  0.70250  Biso   1.000  C
  C43      1.0000 0.15544  0.08417  0.64590  Biso   1.000  C
  C44      1.0000 0.16833  0.08660  0.53220  Biso   1.000  C
  H38      1.0000 0.19410  0.05230  0.51300  Biso   1.000  H
  H39      1.0000 0.18910  0.12460  0.51580  Biso   1.000  H
  H40      1.0000 0.13010  0.08450  0.49430  Biso   1.000  H
  C45      1.0000 0.15005  0.02844  0.69640  Biso   1.000  C
  C46      1.0000 0.14283  0.02592  0.80240  Biso   1.000  C
  C47      1.0000 0.13937  0.96533  0.85710  Biso   1.000  C
  H41      1.0000 0.09690  0.95480  0.86920  Biso   1.000  H
  H42      1.0000 0.16070  0.96810  0.92270  Biso   1.000  H
  H43      1.0000 0.15830  0.93410  0.81480  Biso   1.000  H
  C48      1.0000 0.14010  0.07976  0.85920  Biso   1.000  C
  C49      1.0000 0.14409  0.13587  0.80900  Biso   1.000  C
  C50      1.0000 0.14658  0.19393  0.87110  Biso   1.000  C
  H44      1.0000 0.17080  0.22410  0.83460  Biso   1.000  H
  H45      1.0000 0.16510  0.18560  0.93770  Biso   1.000  H
  H46      1.0000 0.10550  0.20950  0.88110  Biso   1.000  H
  C51      1.0000 0.98903  0.92311  0.68010  Biso   1.000  C
  C52      1.0000 0.92756  0.93559  0.68740  Biso   1.000  C
  H47      1.0000 0.89950  0.90540  0.70810  Biso   1.000  H
  C53      1.0000 0.90884  0.99343  0.66340  Biso   1.000  C
  H48      1.0000 0.86710  0.00330  0.66860  Biso   1.000  H
  C54      1.0000 0.94958  0.03788  0.63150  Biso   1.000  C
  H49      1.0000 0.93490  0.07700  0.61480  Biso   1.000  H
  C55      1.0000 0.01086  0.02610  0.62390  Biso   1.000  C
  H50      1.0000 0.03870  0.05630  0.60220  Biso   1.000  H
  C56      1.0000 0.02988  0.96805  0.64950  Biso   1.000  C
  C57      1.0000 0.07718  0.88266  0.68140  Biso   1.000  C
  H51      1.0000 0.10910  0.85420  0.68890  Biso   1.000  H
  C58      1.0000 0.14546  0.97012  0.63370  Biso   1.000  C
  H52      1.0000 0.15010  0.97960  0.56020  Biso   1.000  H
  H53      1.0000 0.17840  0.94220  0.65360  Biso   1.000  H
  C59      1.0000 0.99278  0.15661  0.04560  Biso   1.000  C
  C60      1.0000 0.93127  0.16814  0.03510  Biso   1.000  C
  H54      1.0000 0.91130  0.19750  0.07610  Biso   1.000  H
  C61      1.0000 0.90040  0.13492  0.96230  Biso   1.000  C
  H55      1.0000 0.85840  0.14220  0.95270  Biso   1.000  H
  C62      1.0000 0.92895  0.09104  0.90250  Biso   1.000  C
  H56      1.0000 0.90580  0.06870  0.85430  Biso   1.000  H
  C63      1.0000 0.99029  0.07949  0.91190  Biso   1.000  C
  H57      1.0000 0.01010  0.05020  0.87070  Biso   1.000  H
  C64      1.0000 0.02131  0.11309  0.98480  Biso   1.000  C
  C65      1.0000 0.08655  0.15604  0.08950  Biso   1.000  C
  H58      1.0000 0.12360  0.16500  0.12290  Biso   1.000  H
  C66      1.0000 0.13194  0.07720  0.97460  Biso   1.000  C
  H59      1.0000 0.12480  0.03460  0.99480  Biso   1.000  H
  H60      1.0000 0.17000  0.09050  0.00750  Biso   1.000  H
  Mn3      1.0000 0.52059  0.72126  0.73248  Biso   1.000  Mn
  Cl5      1.0000 0.42799  0.77622  0.74276  Biso   1.000  Cl
  Cl6      1.0000 0.62420  0.77173  0.75118  Biso   1.000  Cl
  N13      1.0000 0.54019  0.71840  0.56573  Biso   1.000  N
  N14      1.0000 0.59262  0.70183  0.42190  Biso   1.000  N
  N15      1.0000 0.52050  0.36927  0.30061  Biso   1.000  N
  N16      1.0000 0.58636  0.44069  0.34887  Biso   1.000  N
  N17      1.0000 0.53531  0.68277  0.88748  Biso   1.000  N
  N18      1.0000 0.58197  0.61452  0.98620  Biso   1.000  N
  C67      1.0000 0.49944  0.71195  0.48400  Biso   1.000  C
  C68      1.0000 0.43649  0.71523  0.48270  Biso   1.000  C
  H61      1.0000 0.41400  0.72190  0.54360  Biso   1.000  H
  C69      1.0000 0.40789  0.70848  0.38930  Biso   1.000  C
  H62      1.0000 0.36500  0.71030  0.38610  Biso   1.000  H
  C70      1.0000 0.44111  0.69902  0.29940  Biso   1.000  C
  H63      1.0000 0.42010  0.69500  0.23640  Biso   1.000  H
  C71      1.0000 0.50305  0.69538  0.29970  Biso   1.000  C
  H64      1.0000 0.52530  0.68870  0.23860  Biso   1.000  H
  C72      1.0000 0.53193  0.70189  0.39340  Biso   1.000  C
  C73      1.0000 0.59422  0.71197  0.52430  Biso   1.000  C
  H65      1.0000 0.63080  0.71420  0.56240  Biso   1.000  H
  C74      1.0000 0.64596  0.69802  0.35420  Biso   1.000  C
  H66      1.0000 0.64440  0.73140  0.30390  Biso   1.000  H
  H67      1.0000 0.68310  0.70310  0.39560  Biso   1.000  H
  C75      1.0000 0.64903  0.63783  0.29750  Biso   1.000  C
  C76      1.0000 0.65544  0.58417  0.35410  Biso   1.000  C
  C77      1.0000 0.66833  0.58660  0.46780  Biso   1.000  C
  H68      1.0000 0.69410  0.55230  0.48700  Biso   1.000  H
  H69      1.0000 0.68910  0.62460  0.48420  Biso   1.000  H
  H70      1.0000 0.63010  0.58450  0.50570  Biso   1.000  H
  C78      1.0000 0.65005  0.52844  0.30360  Biso   1.000  C
  C79      1.0000 0.64283  0.52592  0.19760  Biso   1.000  C
  C80      1.0000 0.63937  0.46533  0.14290  Biso   1.000  C
  H71      1.0000 0.59690  0.45480  0.13080  Biso   1.000  H
  H72      1.0000 0.66070  0.46810  0.07730  Biso   1.000  H
  H73      1.0000 0.65830  0.43410  0.18520  Biso   1.000  H
  C81      1.0000 0.64010  0.57976  0.14080  Biso   1.000  C
  C82      1.0000 0.64409  0.63587  0.19100  Biso   1.000  C
  C83      1.0000 0.64658  0.69393  0.12890  Biso   1.000  C
  H74      1.0000 0.67080  0.72410  0.16540  Biso   1.000  H
  H75      1.0000 0.66510  0.68560  0.06230  Biso   1.000  H
  H76      1.0000 0.60550  0.70950  0.11890  Biso   1.000  H
  C84      1.0000 0.48903  0.42311  0.31990  Biso   1.000  C
  C85      1.0000 0.42756  0.43559  0.31260  Biso   1.000  C
  H77      1.0000 0.39950  0.40540  0.29190  Biso   1.000  H
  C86      1.0000 0.40884  0.49343  0.33660  Biso   1.000  C
  H78      1.0000 0.36710  0.50330  0.33140  Biso   1.000  H
  C87      1.0000 0.44958  0.53788  0.36850  Biso   1.000  C
  H79      1.0000 0.43490  0.57700  0.38520  Biso   1.000  H
  C88      1.0000 0.51086  0.52610  0.37610  Biso   1.000  C
  H80      1.0000 0.53870  0.55630  0.39780  Biso   1.000  H
  C89      1.0000 0.52988  0.46805  0.35050  Biso   1.000  C
  C90      1.0000 0.57718  0.38266  0.31860  Biso   1.000  C
  H81      1.0000 0.60910  0.35420  0.31110  Biso   1.000  H
  C91      1.0000 0.64546  0.47012  0.36630  Biso   1.000  C
  H82      1.0000 0.65010  0.47960  0.43980  Biso   1.000  H
  H83      1.0000 0.67840  0.44220  0.34640  Biso   1.000  H
  C92      1.0000 0.49278  0.65661  0.95440  Biso   1.000  C
  C93      1.0000 0.43127  0.66814  0.96490  Biso   1.000  C
  H84      1.0000 0.41130  0.69750  0.92390  Biso   1.000  H
  C94      1.0000 0.40040  0.63492  0.03770  Biso   1.000  C
  H85      1.0000 0.35840  0.64220  0.04730  Biso   1.000  H
  C95      1.0000 0.42895  0.59104  0.09750  Biso   1.000  C
  H86      1.0000 0.40580  0.56870  0.14570  Biso   1.000  H
  C96      1.0000 0.49029  0.57949  0.08810  Biso   1.000  C
  H87      1.0000 0.51010  0.55020  0.12930  Biso   1.000  H
  C97      1.0000 0.52131  0.61309  0.01520  Biso   1.000  C
  C98      1.0000 0.58655  0.65604  0.91050  Biso   1.000  C
  H88      1.0000 0.62360  0.66500  0.87710  Biso   1.000  H
  C99      1.0000 0.63194  0.57720  0.02540  Biso   1.000  C
  H89      1.0000 0.62480  0.53460  0.00520  Biso   1.000  H
  H90      1.0000 0.67000  0.59050  0.99250  Biso   1.000  H
  Mn4      1.0000 0.47941  0.27874  0.26752  Biso   1.000  Mn
  Cl7      1.0000 0.57201  0.22378  0.25724  Biso   1.000  Cl
  Cl8      1.0000 0.37580  0.22827  0.24882  Biso   1.000  Cl
  N19      1.0000 0.45981  0.28160  0.43427  Biso   1.000  N
  N20      1.0000 0.40738  0.29817  0.57810  Biso   1.000  N
  N21      1.0000 0.47950  0.63073  0.69939  Biso   1.000  N
  N22      1.0000 0.41364  0.55931  0.65113  Biso   1.000  N
  N23      1.0000 0.46469  0.31723  0.11252  Biso   1.000  N
  N24      1.0000 0.41803  0.38548  0.01380  Biso   1.000  N
  C100     1.0000 0.50056  0.28805  0.51600  Biso   1.000  C
  C101     1.0000 0.56351  0.28477  0.51730  Biso   1.000  C
  H91      1.0000 0.58600  0.27810  0.45640  Biso   1.000  H
  C102     1.0000 0.59211  0.29152  0.61070  Biso   1.000  C
  H92      1.0000 0.63500  0.28970  0.61390  Biso   1.000  H
  C103     1.0000 0.55889  0.30098  0.70060  Biso   1.000  C
  H93      1.0000 0.57990  0.30500  0.76360  Biso   1.000  H
  C104     1.0000 0.49695  0.30462  0.70030  Biso   1.000  C
  H94      1.0000 0.47470  0.31130  0.76140  Biso   1.000  H
  C105     1.0000 0.46807  0.29811  0.60660  Biso   1.000  C
  C106     1.0000 0.40578  0.28803  0.47570  Biso   1.000  C
  H95      1.0000 0.36920  0.28580  0.43760  Biso   1.000  H
  C107     1.0000 0.35404  0.30198  0.64580  Biso   1.000  C
  H96      1.0000 0.35560  0.26860  0.69610  Biso   1.000  H
  H97      1.0000 0.31690  0.29690  0.60440  Biso   1.000  H
  C108     1.0000 0.35097  0.36217  0.70250  Biso   1.000  C
  C109     1.0000 0.34456  0.41583  0.64590  Biso   1.000  C
  C110     1.0000 0.33167  0.41340  0.53220  Biso   1.000  C
  H98      1.0000 0.30590  0.44770  0.51300  Biso   1.000  H
  H99      1.0000 0.31090  0.37540  0.51580  Biso   1.000  H
  H100     1.0000 0.36990  0.41550  0.49430  Biso   1.000  H
  C111     1.0000 0.34995  0.47156  0.69640  Biso   1.000  C
  C112     1.0000 0.35717  0.47408  0.80240  Biso   1.000  C
  C113     1.0000 0.36063  0.53467  0.85710  Biso   1.000  C
  H101     1.0000 0.40310  0.54520  0.86920  Biso   1.000  H
  H102     1.0000 0.33930  0.53190  0.92270  Biso   1.000  H
  H103     1.0000 0.34170  0.56590  0.81480  Biso   1.000  H
  C114     1.0000 0.35990  0.42024  0.85920  Biso   1.000  C
  C115     1.0000 0.35591  0.36413  0.80900  Biso   1.000  C
  C116     1.0000 0.35342  0.30607  0.87110  Biso   1.000  C
  H104     1.0000 0.32920  0.27590  0.83460  Biso   1.000  H
  H105     1.0000 0.33490  0.31440  0.93770  Biso   1.000  H
  H106     1.0000 0.39450  0.29050  0.88110  Biso   1.000  H
  C117     1.0000 0.51097  0.57689  0.68010  Biso   1.000  C
  C118     1.0000 0.57244  0.56441  0.68740  Biso   1.000  C
  H107     1.0000 0.60050  0.59460  0.70810  Biso   1.000  H
  C119     1.0000 0.59116  0.50657  0.66340  Biso   1.000  C
  H108     1.0000 0.63290  0.49670  0.66860  Biso   1.000  H
  C120     1.0000 0.55042  0.46212  0.63150  Biso   1.000  C
  H109     1.0000 0.56510  0.42300  0.61480  Biso   1.000  H
  C121     1.0000 0.48914  0.47390  0.62390  Biso   1.000  C
  H110     1.0000 0.46130  0.44370  0.60220  Biso   1.000  H
  C122     1.0000 0.47012  0.53195  0.64950  Biso   1.000  C
  C123     1.0000 0.42282  0.61734  0.68140  Biso   1.000  C
  H111     1.0000 0.39090  0.64580  0.68890  Biso   1.000  H
  C124     1.0000 0.35454  0.52988  0.63370  Biso   1.000  C
  H112     1.0000 0.34990  0.52040  0.56020  Biso   1.000  H
  H113     1.0000 0.32160  0.55780  0.65360  Biso   1.000  H
  C125     1.0000 0.50722  0.34339  0.04560  Biso   1.000  C
  C126     1.0000 0.56873  0.33186  0.03510  Biso   1.000  C
  H114     1.0000 0.58870  0.30250  0.07610  Biso   1.000  H
  C127     1.0000 0.59960  0.36508  0.96230  Biso   1.000  C
  H115     1.0000 0.64160  0.35780  0.95270  Biso   1.000  H
  C128     1.0000 0.57105  0.40896  0.90250  Biso   1.000  C
  H116     1.0000 0.59420  0.43130  0.85430  Biso   1.000  H
  C129     1.0000 0.50971  0.42051  0.91190  Biso   1.000  C
  H117     1.0000 0.48990  0.44980  0.87070  Biso   1.000  H
  C130     1.0000 0.47869  0.38691  0.98480  Biso   1.000  C
  C131     1.0000 0.41345  0.34396  0.08950  Biso   1.000  C
  H118     1.0000 0.37640  0.33500  0.12290  Biso   1.000  H
  C132     1.0000 0.36806  0.42280  0.97460  Biso   1.000  C
  H119     1.0000 0.37520  0.46540  0.99480  Biso   1.000  H
  H120     1.0000 0.33000  0.40950  0.00750  Biso   1.000  H
  Mn5      1.0000 0.22126  0.47941  0.23248  Biso   1.000  Mn
  Cl9      1.0000 0.27622  0.57201  0.24276  Biso   1.000  Cl
  Cl10     1.0000 0.27173  0.37580  0.25118  Biso   1.000  Cl
  N25      1.0000 0.21840  0.45981  0.06573  Biso   1.000  N
  N26      1.0000 0.20183  0.40738  0.92190  Biso   1.000  N
  N27      1.0000 0.86927  0.47950  0.80061  Biso   1.000  N
  N28      1.0000 0.94069  0.41364  0.84887  Biso   1.000  N
  N29      1.0000 0.18277  0.46469  0.38748  Biso   1.000  N
  N30      1.0000 0.11452  0.41803  0.48620  Biso   1.000  N
  C133     1.0000 0.21195  0.50056  0.98400  Biso   1.000  C
  C134     1.0000 0.21523  0.56351  0.98270  Biso   1.000  C
  H121     1.0000 0.22190  0.58600  0.04360  Biso   1.000  H
  C135     1.0000 0.20848  0.59211  0.88930  Biso   1.000  C
  H122     1.0000 0.21030  0.63500  0.88610  Biso   1.000  H
  C136     1.0000 0.19902  0.55889  0.79940  Biso   1.000  C
  H123     1.0000 0.19500  0.57990  0.73640  Biso   1.000  H
  C137     1.0000 0.19538  0.49695  0.79970  Biso   1.000  C
  H124     1.0000 0.18870  0.47470  0.73860  Biso   1.000  H
  C138     1.0000 0.20189  0.46807  0.89340  Biso   1.000  C
  C139     1.0000 0.21197  0.40578  0.02430  Biso   1.000  C
  H125     1.0000 0.21420  0.36920  0.06240  Biso   1.000  H
  C140     1.0000 0.19802  0.35404  0.85420  Biso   1.000  C
  H126     1.0000 0.23140  0.35560  0.80390  Biso   1.000  H
  H127     1.0000 0.20310  0.31690  0.89560  Biso   1.000  H
  C141     1.0000 0.13783  0.35097  0.79750  Biso   1.000  C
  C142     1.0000 0.08417  0.34456  0.85410  Biso   1.000  C
  C143     1.0000 0.08660  0.33167  0.96780  Biso   1.000  C
  H128     1.0000 0.05230  0.30590  0.98700  Biso   1.000  H
  H129     1.0000 0.12460  0.31090  0.98420  Biso   1.000  H
  H130     1.0000 0.08450  0.36990  0.00570  Biso   1.000  H
  C144     1.0000 0.02844  0.34995  0.80360  Biso   1.000  C
  C145     1.0000 0.02592  0.35717  0.69760  Biso   1.000  C
  C146     1.0000 0.96533  0.36063  0.64290  Biso   1.000  C
  H131     1.0000 0.95480  0.40310  0.63080  Biso   1.000  H
  H132     1.0000 0.96810  0.33930  0.57730  Biso   1.000  H
  H133     1.0000 0.93410  0.34170  0.68520  Biso   1.000  H
  C147     1.0000 0.07976  0.35990  0.64080  Biso   1.000  C
  C148     1.0000 0.13587  0.35591  0.69100  Biso   1.000  C
  C149     1.0000 0.19393  0.35342  0.62890  Biso   1.000  C
  H134     1.0000 0.22410  0.32920  0.66540  Biso   1.000  H
  H135     1.0000 0.18560  0.33490  0.56230  Biso   1.000  H
  H136     1.0000 0.20950  0.39450  0.61890  Biso   1.000  H
  C150     1.0000 0.92311  0.51097  0.81990  Biso   1.000  C
  C151     1.0000 0.93559  0.57244  0.81260  Biso   1.000  C
  H137     1.0000 0.90540  0.60050  0.79190  Biso   1.000  H
  C152     1.0000 0.99343  0.59116  0.83660  Biso   1.000  C
  H138     1.0000 0.00330  0.63290  0.83140  Biso   1.000  H
  C153     1.0000 0.03788  0.55042  0.86850  Biso   1.000  C
  H139     1.0000 0.07700  0.56510  0.88520  Biso   1.000  H
  C154     1.0000 0.02610  0.48914  0.87610  Biso   1.000  C
  H140     1.0000 0.05630  0.46130  0.89780  Biso   1.000  H
  C155     1.0000 0.96805  0.47012  0.85050  Biso   1.000  C
  C156     1.0000 0.88266  0.42282  0.81860  Biso   1.000  C
  H141     1.0000 0.85420  0.39090  0.81110  Biso   1.000  H
  C157     1.0000 0.97012  0.35454  0.86630  Biso   1.000  C
  H142     1.0000 0.97960  0.34990  0.93980  Biso   1.000  H
  H143     1.0000 0.94220  0.32160  0.84640  Biso   1.000  H
  C158     1.0000 0.15661  0.50722  0.45440  Biso   1.000  C
  C159     1.0000 0.16814  0.56873  0.46490  Biso   1.000  C
  H144     1.0000 0.19750  0.58870  0.42390  Biso   1.000  H
  C160     1.0000 0.13492  0.59960  0.53770  Biso   1.000  C
  H145     1.0000 0.14220  0.64160  0.54730  Biso   1.000  H
  C161     1.0000 0.09104  0.57105  0.59750  Biso   1.000  C
  H146     1.0000 0.06870  0.59420  0.64570  Biso   1.000  H
  C162     1.0000 0.07949  0.50971  0.58810  Biso   1.000  C
  H147     1.0000 0.05020  0.48990  0.62930  Biso   1.000  H
  C163     1.0000 0.11309  0.47869  0.51520  Biso   1.000  C
  C164     1.0000 0.15604  0.41345  0.41050  Biso   1.000  C
  H148     1.0000 0.16500  0.37640  0.37710  Biso   1.000  H
  C165     1.0000 0.07720  0.36806  0.52540  Biso   1.000  C
  H149     1.0000 0.03460  0.37520  0.50520  Biso   1.000  H
  H150     1.0000 0.09050  0.33000  0.49250  Biso   1.000  H
  Mn6      1.0000 0.77874  0.52059  0.76752  Biso   1.000  Mn
  Cl11     1.0000 0.72378  0.42799  0.75724  Biso   1.000  Cl
  Cl12     1.0000 0.72827  0.62420  0.74882  Biso   1.000  Cl
  N31      1.0000 0.78160  0.54019  0.93427  Biso   1.000  N
  N32      1.0000 0.79817  0.59262  0.07810  Biso   1.000  N
  N33      1.0000 0.13073  0.52050  0.19939  Biso   1.000  N
  N34      1.0000 0.05931  0.58636  0.15113  Biso   1.000  N
  N35      1.0000 0.81723  0.53531  0.61252  Biso   1.000  N
  N36      1.0000 0.88548  0.58197  0.51380  Biso   1.000  N
  C166     1.0000 0.78805  0.49944  0.01600  Biso   1.000  C
  C167     1.0000 0.78477  0.43649  0.01730  Biso   1.000  C
  H151     1.0000 0.77810  0.41400  0.95640  Biso   1.000  H
  C168     1.0000 0.79152  0.40789  0.11070  Biso   1.000  C
  H152     1.0000 0.78970  0.36500  0.11390  Biso   1.000  H
  C169     1.0000 0.80098  0.44111  0.20060  Biso   1.000  C
  H153     1.0000 0.80500  0.42010  0.26360  Biso   1.000  H
  C170     1.0000 0.80462  0.50305  0.20030  Biso   1.000  C
  H154     1.0000 0.81130  0.52530  0.26140  Biso   1.000  H
  C171     1.0000 0.79811  0.53193  0.10660  Biso   1.000  C
  C172     1.0000 0.78803  0.59422  0.97570  Biso   1.000  C
  H155     1.0000 0.78580  0.63080  0.93760  Biso   1.000  H
  C173     1.0000 0.80198  0.64596  0.14580  Biso   1.000  C
  H156     1.0000 0.76860  0.64440  0.19610  Biso   1.000  H
  H157     1.0000 0.79690  0.68310  0.10440  Biso   1.000  H
  C174     1.0000 0.86217  0.64903  0.20250  Biso   1.000  C
  C175     1.0000 0.91583  0.65544  0.14590  Biso   1.000  C
  C176     1.0000 0.91340  0.66833  0.03220  Biso   1.000  C
  H158     1.0000 0.94770  0.69410  0.01300  Biso   1.000  H
  H159     1.0000 0.87540  0.68910  0.01580  Biso   1.000  H
  H160     1.0000 0.91550  0.63010  0.99430  Biso   1.000  H
  C177     1.0000 0.97156  0.65005  0.19640  Biso   1.000  C
  C178     1.0000 0.97408  0.64283  0.30240  Biso   1.000  C
  C179     1.0000 0.03467  0.63937  0.35710  Biso   1.000  C
  H161     1.0000 0.04520  0.59690  0.36920  Biso   1.000  H
  H162     1.0000 0.03190  0.66070  0.42270  Biso   1.000  H
  H163     1.0000 0.06590  0.65830  0.31480  Biso   1.000  H
  C180     1.0000 0.92024  0.64010  0.35920  Biso   1.000  C
  C181     1.0000 0.86413  0.64409  0.30900  Biso   1.000  C
  C182     1.0000 0.80607  0.64658  0.37110  Biso   1.000  C
  H164     1.0000 0.77590  0.67080  0.33460  Biso   1.000  H
  H165     1.0000 0.81440  0.66510  0.43770  Biso   1.000  H
  H166     1.0000 0.79050  0.60550  0.38110  Biso   1.000  H
  C183     1.0000 0.07689  0.48903  0.18010  Biso   1.000  C
  C184     1.0000 0.06441  0.42756  0.18740  Biso   1.000  C
  H167     1.0000 0.09460  0.39950  0.20810  Biso   1.000  H
  C185     1.0000 0.00657  0.40884  0.16340  Biso   1.000  C
  H168     1.0000 0.99670  0.36710  0.16860  Biso   1.000  H
  C186     1.0000 0.96212  0.44958  0.13150  Biso   1.000  C
  H169     1.0000 0.92300  0.43490  0.11480  Biso   1.000  H
  C187     1.0000 0.97390  0.51086  0.12390  Biso   1.000  C
  H170     1.0000 0.94370  0.53870  0.10220  Biso   1.000  H
  C188     1.0000 0.03195  0.52988  0.14950  Biso   1.000  C
  C189     1.0000 0.11734  0.57718  0.18140  Biso   1.000  C
  H171     1.0000 0.14580  0.60910  0.18890  Biso   1.000  H
  C190     1.0000 0.02988  0.64546  0.13370  Biso   1.000  C
  H172     1.0000 0.02040  0.65010  0.06020  Biso   1.000  H
  H173     1.0000 0.05780  0.67840  0.15360  Biso   1.000  H
  C191     1.0000 0.84339  0.49278  0.54560  Biso   1.000  C
  C192     1.0000 0.83186  0.43127  0.53510  Biso   1.000  C
  H174     1.0000 0.80250  0.41130  0.57610  Biso   1.000  H
  C193     1.0000 0.86508  0.40040  0.46230  Biso   1.000  C
  H175     1.0000 0.85780  0.35840  0.45270  Biso   1.000  H
  C194     1.0000 0.90896  0.42895  0.40250  Biso   1.000  C
  H176     1.0000 0.93130  0.40580  0.35430  Biso   1.000  H
  C195     1.0000 0.92051  0.49029  0.41190  Biso   1.000  C
  H177     1.0000 0.94980  0.51010  0.37070  Biso   1.000  H
  C196     1.0000 0.88691  0.52131  0.48480  Biso   1.000  C
  C197     1.0000 0.84396  0.58655  0.58950  Biso   1.000  C
  H178     1.0000 0.83500  0.62360  0.62290  Biso   1.000  H
  C198     1.0000 0.92280  0.63194  0.47460  Biso   1.000  C
  H179     1.0000 0.96540  0.62480  0.49480  Biso   1.000  H
  H180     1.0000 0.90950  0.67000  0.50750  Biso   1.000  H
  Mn7      1.0000 0.27874  0.02059  0.23248  Biso   1.000  Mn
  Cl13     1.0000 0.22378  0.92799  0.24276  Biso   1.000  Cl
  Cl14     1.0000 0.22827  0.12420  0.25118  Biso   1.000  Cl
  N37      1.0000 0.28160  0.04019  0.06573  Biso   1.000  N
  N38      1.0000 0.29817  0.09262  0.92190  Biso   1.000  N
  N39      1.0000 0.63073  0.02050  0.80061  Biso   1.000  N
  N40      1.0000 0.55931  0.08636  0.84887  Biso   1.000  N
  N41      1.0000 0.31723  0.03531  0.38748  Biso   1.000  N
  N42      1.0000 0.38548  0.08197  0.48620  Biso   1.000  N
  C199     1.0000 0.28805  0.99944  0.98400  Biso   1.000  C
  C200     1.0000 0.28477  0.93649  0.98270  Biso   1.000  C
  H181     1.0000 0.27810  0.91400  0.04360  Biso   1.000  H
  C201     1.0000 0.29152  0.90789  0.88930  Biso   1.000  C
  H182     1.0000 0.28970  0.86500  0.88610  Biso   1.000  H
  C202     1.0000 0.30098  0.94111  0.79940  Biso   1.000  C
  H183     1.0000 0.30500  0.92010  0.73640  Biso   1.000  H
  C203     1.0000 0.30462  0.00305  0.79970  Biso   1.000  C
  H184     1.0000 0.31130  0.02530  0.73860  Biso   1.000  H
  C204     1.0000 0.29811  0.03193  0.89340  Biso   1.000  C
  C205     1.0000 0.28803  0.09422  0.02430  Biso   1.000  C
  H185     1.0000 0.28580  0.13080  0.06240  Biso   1.000  H
  C206     1.0000 0.30198  0.14596  0.85420  Biso   1.000  C
  H186     1.0000 0.26860  0.14440  0.80390  Biso   1.000  H
  H187     1.0000 0.29690  0.18310  0.89560  Biso   1.000  H
  C207     1.0000 0.36217  0.14903  0.79750  Biso   1.000  C
  C208     1.0000 0.41583  0.15544  0.85410  Biso   1.000  C
  C209     1.0000 0.41340  0.16833  0.96780  Biso   1.000  C
  H188     1.0000 0.44770  0.19410  0.98700  Biso   1.000  H
  H189     1.0000 0.37540  0.18910  0.98420  Biso   1.000  H
  H190     1.0000 0.41550  0.13010  0.00570  Biso   1.000  H
  C210     1.0000 0.47156  0.15005  0.80360  Biso   1.000  C
  C211     1.0000 0.47408  0.14283  0.69760  Biso   1.000  C
  C212     1.0000 0.53467  0.13937  0.64290  Biso   1.000  C
  H191     1.0000 0.54520  0.09690  0.63080  Biso   1.000  H
  H192     1.0000 0.53190  0.16070  0.57730  Biso   1.000  H
  H193     1.0000 0.56590  0.15830  0.68520  Biso   1.000  H
  C213     1.0000 0.42024  0.14010  0.64080  Biso   1.000  C
  C214     1.0000 0.36413  0.14409  0.69100  Biso   1.000  C
  C215     1.0000 0.30607  0.14658  0.62890  Biso   1.000  C
  H194     1.0000 0.27590  0.17080  0.66540  Biso   1.000  H
  H195     1.0000 0.31440  0.16510  0.56230  Biso   1.000  H
  H196     1.0000 0.29050  0.10550  0.61890  Biso   1.000  H
  C216     1.0000 0.57689  0.98903  0.81990  Biso   1.000  C
  C217     1.0000 0.56441  0.92756  0.81260  Biso   1.000  C
  H197     1.0000 0.59460  0.89950  0.79190  Biso   1.000  H
  C218     1.0000 0.50657  0.90884  0.83660  Biso   1.000  C
  H198     1.0000 0.49670  0.86710  0.83140  Biso   1.000  H
  C219     1.0000 0.46212  0.94958  0.86850  Biso   1.000  C
  H199     1.0000 0.42300  0.93490  0.88520  Biso   1.000  H
  C220     1.0000 0.47390  0.01086  0.87610  Biso   1.000  C
  H200     1.0000 0.44370  0.03870  0.89780  Biso   1.000  H
  C221     1.0000 0.53195  0.02988  0.85050  Biso   1.000  C
  C222     1.0000 0.61734  0.07718  0.81860  Biso   1.000  C
  H201     1.0000 0.64580  0.10910  0.81110  Biso   1.000  H
  C223     1.0000 0.52988  0.14546  0.86630  Biso   1.000  C
  H202     1.0000 0.52040  0.15010  0.93980  Biso   1.000  H
  H203     1.0000 0.55780  0.17840  0.84640  Biso   1.000  H
  C224     1.0000 0.34339  0.99278  0.45440  Biso   1.000  C
  C225     1.0000 0.33186  0.93127  0.46490  Biso   1.000  C
  H204     1.0000 0.30250  0.91130  0.42390  Biso   1.000  H
  C226     1.0000 0.36508  0.90040  0.53770  Biso   1.000  C
  H205     1.0000 0.35780  0.85840  0.54730  Biso   1.000  H
  C227     1.0000 0.40896  0.92895  0.59750  Biso   1.000  C
  H206     1.0000 0.43130  0.90580  0.64570  Biso   1.000  H
  C228     1.0000 0.42051  0.99029  0.58810  Biso   1.000  C
  H207     1.0000 0.44980  0.01010  0.62930  Biso   1.000  H
  C229     1.0000 0.38691  0.02131  0.51520  Biso   1.000  C
  C230     1.0000 0.34396  0.08655  0.41050  Biso   1.000  C
  H208     1.0000 0.33500  0.12360  0.37710  Biso   1.000  H
  C231     1.0000 0.42280  0.13194  0.52540  Biso   1.000  C
  H209     1.0000 0.46540  0.12480  0.50520  Biso   1.000  H
  H210     1.0000 0.40950  0.17000  0.49250  Biso   1.000  H
  Mn8      1.0000 0.72126  0.97941  0.76752  Biso   1.000  Mn
  Cl15     1.0000 0.77622  0.07201  0.75724  Biso   1.000  Cl
  Cl16     1.0000 0.77173  0.87580  0.74882  Biso   1.000  Cl
  N43      1.0000 0.71840  0.95981  0.93427  Biso   1.000  N
  N44      1.0000 0.70183  0.90738  0.07810  Biso   1.000  N
  N45      1.0000 0.36927  0.97950  0.19939  Biso   1.000  N
  N46      1.0000 0.44069  0.91364  0.15113  Biso   1.000  N
  N47      1.0000 0.68277  0.96469  0.61252  Biso   1.000  N
  N48      1.0000 0.61452  0.91803  0.51380  Biso   1.000  N
  C232     1.0000 0.71195  0.00056  0.01600  Biso   1.000  C
  C233     1.0000 0.71523  0.06351  0.01730  Biso   1.000  C
  H211     1.0000 0.72190  0.08600  0.95640  Biso   1.000  H
  C234     1.0000 0.70848  0.09211  0.11070  Biso   1.000  C
  H212     1.0000 0.71030  0.13500  0.11390  Biso   1.000  H
  C235     1.0000 0.69902  0.05889  0.20060  Biso   1.000  C
  H213     1.0000 0.69500  0.07990  0.26360  Biso   1.000  H
  C236     1.0000 0.69538  0.99695  0.20030  Biso   1.000  C
  H214     1.0000 0.68870  0.97470  0.26140  Biso   1.000  H
  C237     1.0000 0.70189  0.96807  0.10660  Biso   1.000  C
  C238     1.0000 0.71197  0.90578  0.97570  Biso   1.000  C
  H215     1.0000 0.71420  0.86920  0.93760  Biso   1.000  H
  C239     1.0000 0.69802  0.85404  0.14580  Biso   1.000  C
  H216     1.0000 0.73140  0.85560  0.19610  Biso   1.000  H
  H217     1.0000 0.70310  0.81690  0.10440  Biso   1.000  H
  C240     1.0000 0.63783  0.85097  0.20250  Biso   1.000  C
  C241     1.0000 0.58417  0.84456  0.14590  Biso   1.000  C
  C242     1.0000 0.58660  0.83167  0.03220  Biso   1.000  C
  H218     1.0000 0.55230  0.80590  0.01300  Biso   1.000  H
  H219     1.0000 0.62460  0.81090  0.01580  Biso   1.000  H
  H220     1.0000 0.58450  0.86990  0.99430  Biso   1.000  H
  C243     1.0000 0.52844  0.84995  0.19640  Biso   1.000  C
  C244     1.0000 0.52592  0.85717  0.30240  Biso   1.000  C
  C245     1.0000 0.46533  0.86063  0.35710  Biso   1.000  C
  H221     1.0000 0.45480  0.90310  0.36920  Biso   1.000  H
  H222     1.0000 0.46810  0.83930  0.42270  Biso   1.000  H
  H223     1.0000 0.43410  0.84170  0.31480  Biso   1.000  H
  C246     1.0000 0.57976  0.85990  0.35920  Biso   1.000  C
  C247     1.0000 0.63587  0.85591  0.30900  Biso   1.000  C
  C248     1.0000 0.69393  0.85342  0.37110  Biso   1.000  C
  H224     1.0000 0.72410  0.82920  0.33460  Biso   1.000  H
  H225     1.0000 0.68560  0.83490  0.43770  Biso   1.000  H
  H226     1.0000 0.70950  0.89450  0.38110  Biso   1.000  H
  C249     1.0000 0.42311  0.01097  0.18010  Biso   1.000  C
  C250     1.0000 0.43559  0.07244  0.18740  Biso   1.000  C
  H227     1.0000 0.40540  0.10050  0.20810  Biso   1.000  H
  C251     1.0000 0.49343  0.09116  0.16340  Biso   1.000  C
  H228     1.0000 0.50330  0.13290  0.16860  Biso   1.000  H
  C252     1.0000 0.53788  0.05042  0.13150  Biso   1.000  C
  H229     1.0000 0.57700  0.06510  0.11480  Biso   1.000  H
  C253     1.0000 0.52610  0.98914  0.12390  Biso   1.000  C
  H230     1.0000 0.55630  0.96130  0.10220  Biso   1.000  H
  C254     1.0000 0.46805  0.97012  0.14950  Biso   1.000  C
  C255     1.0000 0.38266  0.92282  0.18140  Biso   1.000  C
  H231     1.0000 0.35420  0.89090  0.18890  Biso   1.000  H
  C256     1.0000 0.47012  0.85454  0.13370  Biso   1.000  C
  H232     1.0000 0.47960  0.84990  0.06020  Biso   1.000  H
  H233     1.0000 0.44220  0.82160  0.15360  Biso   1.000  H
  C257     1.0000 0.65661  0.00722  0.54560  Biso   1.000  C
  C258     1.0000 0.66814  0.06873  0.53510  Biso   1.000  C
  H234     1.0000 0.69750  0.08870  0.57610  Biso   1.000  H
  C259     1.0000 0.63492  0.09960  0.46230  Biso   1.000  C
  H235     1.0000 0.64220  0.14160  0.45270  Biso   1.000  H
  C260     1.0000 0.59104  0.07105  0.40250  Biso   1.000  C
  H236     1.0000 0.56870  0.09420  0.35430  Biso   1.000  H
  C261     1.0000 0.57949  0.00971  0.41190  Biso   1.000  C
  H237     1.0000 0.55020  0.98990  0.37070  Biso   1.000  H
  C262     1.0000 0.61309  0.97869  0.48480  Biso   1.000  C
  C263     1.0000 0.65604  0.91345  0.58950  Biso   1.000  C
  H238     1.0000 0.66500  0.87640  0.62290  Biso   1.000  H
  C264     1.0000 0.57720  0.86806  0.47460  Biso   1.000  C
  H239     1.0000 0.53460  0.87520  0.49480  Biso   1.000  H
  H240     1.0000 0.59050  0.83000  0.50750  Biso   1.000  H
