data_image0
_cell_length_a       12.158
_cell_length_b       10.943
_cell_length_c       16.944
_cell_angle_alpha    90
_cell_angle_beta     93.548
_cell_angle_gamma    90

_symmetry_space_group_name_H-M    "P 1"
_symmetry_int_tables_number       1

loop_
  _symmetry_equiv_pos_as_xyz
  'x, y, z'

loop_
  _atom_site_label
  _atom_site_occupancy
  _atom_site_fract_x
  _atom_site_fract_y
  _atom_site_fract_z
  _atom_site_thermal_displace_type
  _atom_site_B_iso_or_equiv
  _atom_site_type_symbol
  Pt1      1.0000 0.00956  0.94740  0.16827  Biso   1.000  Pt
  O1       1.0000 0.87380  0.07920  0.31119  Biso   1.000  O
  O2       1.0000 0.14940  0.07820  0.01203  Biso   1.000  O
  O3       1.0000 0.94870  0.16700  0.02778  Biso   1.000  O
  O4       1.0000 0.22530  0.25890  0.03920  Biso   1.000  O
  O5       1.0000 0.01530  0.34630  0.06810  Biso   1.000  O
  N1       1.0000 0.89310  0.07360  0.17860  Biso   1.000  N
  N2       1.0000 0.12000  0.81530  0.14720  Biso   1.000  N
  N3       1.0000 0.90540  0.80580  0.15200  Biso   1.000  N
  C1       1.0000 0.22620  0.83390  0.13700  Biso   1.000  C
  C2       1.0000 0.29310  0.74040  0.11380  Biso   1.000  C
  C3       1.0000 0.24870  0.62440  0.10210  Biso   1.000  C
  C4       1.0000 0.13890  0.60560  0.11170  Biso   1.000  C
  C5       1.0000 0.07490  0.70290  0.13360  Biso   1.000  C
  C6       1.0000 0.95530  0.69630  0.13930  Biso   1.000  C
  C7       1.0000 0.89310  0.59100  0.12990  Biso   1.000  C
  C8       1.0000 0.78110  0.59820  0.13360  Biso   1.000  C
  C9       1.0000 0.73210  0.70920  0.14710  Biso   1.000  C
  C10      1.0000 0.79590  0.81110  0.15530  Biso   1.000  C
  C11      1.0000 0.84790  0.11620  0.23980  Biso   1.000  C
  C12      1.0000 0.75820  0.21310  0.23130  Biso   1.000  C
  C13      1.0000 0.66140  0.17120  0.27670  Biso   1.000  C
  C14      1.0000 0.80560  0.33300  0.26600  Biso   1.000  C
  C15      1.0000 0.71990  0.23540  0.14410  Biso   1.000  C
  C16      1.0000 0.14520  0.19260  0.03190  Biso   1.000  C
  C17      1.0000 0.02970  0.24240  0.04520  Biso   1.000  C
  H1       1.0000 0.86870  0.10520  0.13450  Biso   1.000  H
  H2       1.0000 0.25600  0.91140  0.14560  Biso   1.000  H
  H3       1.0000 0.36710  0.75480  0.10620  Biso   1.000  H
  H4       1.0000 0.29320  0.56000  0.08780  Biso   1.000  H
  H5       1.0000 0.10790  0.52860  0.10360  Biso   1.000  H
  H6       1.0000 0.92690  0.51640  0.12130  Biso   1.000  H
  H7       1.0000 0.73810  0.52820  0.12690  Biso   1.000  H
  H8       1.0000 0.65630  0.71440  0.15050  Biso   1.000  H
  H9       1.0000 0.76250  0.88610  0.16340  Biso   1.000  H
  H10      1.0000 0.63460  0.09450  0.25580  Biso   1.000  H
  H11      1.0000 0.60360  0.23100  0.27150  Biso   1.000  H
  H12      1.0000 0.68460  0.16150  0.33150  Biso   1.000  H
  H13      1.0000 0.75160  0.39670  0.25880  Biso   1.000  H
  H14      1.0000 0.87040  0.35490  0.23960  Biso   1.000  H
  H15      1.0000 0.82450  0.32240  0.32150  Biso   1.000  H
  H16      1.0000 0.69370  0.16020  0.12070  Biso   1.000  H
  H17      1.0000 0.78070  0.26530  0.11610  Biso   1.000  H
  H18      1.0000 0.66170  0.29470  0.14130  Biso   1.000  H
  Pt2      1.0000 0.99044  0.94740  0.33173  Biso   1.000  Pt
  O6       1.0000 0.12620  0.07920  0.18881  Biso   1.000  O
  O7       1.0000 0.85060  0.07820  0.48797  Biso   1.000  O
  O8       1.0000 0.05130  0.16700  0.47222  Biso   1.000  O
  O9       1.0000 0.77470  0.25890  0.46080  Biso   1.000  O
  O10      1.0000 0.98470  0.34630  0.43190  Biso   1.000  O
  N4       1.0000 0.10690  0.07360  0.32140  Biso   1.000  N
  N5       1.0000 0.88000  0.81530  0.35280  Biso   1.000  N
  N6       1.0000 0.09460  0.80580  0.34800  Biso   1.000  N
  C18      1.0000 0.77380  0.83390  0.36300  Biso   1.000  C
  C19      1.0000 0.70690  0.74040  0.38620  Biso   1.000  C
  C20      1.0000 0.75130  0.62440  0.39790  Biso   1.000  C
  C21      1.0000 0.86110  0.60560  0.38830  Biso   1.000  C
  C22      1.0000 0.92510  0.70290  0.36640  Biso   1.000  C
  C23      1.0000 0.04470  0.69630  0.36070  Biso   1.000  C
  C24      1.0000 0.10690  0.59100  0.37010  Biso   1.000  C
  C25      1.0000 0.21890  0.59820  0.36640  Biso   1.000  C
  C26      1.0000 0.26790  0.70920  0.35290  Biso   1.000  C
  C27      1.0000 0.20410  0.81110  0.34470  Biso   1.000  C
  C28      1.0000 0.15210  0.11620  0.26020  Biso   1.000  C
  C29      1.0000 0.24180  0.21310  0.26870  Biso   1.000  C
  C30      1.0000 0.33860  0.17120  0.22330  Biso   1.000  C
  C31      1.0000 0.19440  0.33300  0.23400  Biso   1.000  C
  C32      1.0000 0.28010  0.23540  0.35590  Biso   1.000  C
  C33      1.0000 0.85480  0.19260  0.46810  Biso   1.000  C
  C34      1.0000 0.97030  0.24240  0.45480  Biso   1.000  C
  H19      1.0000 0.13130  0.10520  0.36550  Biso   1.000  H
  H20      1.0000 0.74400  0.91140  0.35440  Biso   1.000  H
  H21      1.0000 0.63290  0.75480  0.39380  Biso   1.000  H
  H22      1.0000 0.70680  0.56000  0.41220  Biso   1.000  H
  H23      1.0000 0.89210  0.52860  0.39640  Biso   1.000  H
  H24      1.0000 0.07310  0.51640  0.37870  Biso   1.000  H
  H25      1.0000 0.26190  0.52820  0.37310  Biso   1.000  H
  H26      1.0000 0.34370  0.71440  0.34950  Biso   1.000  H
  H27      1.0000 0.23750  0.88610  0.33660  Biso   1.000  H
  H28      1.0000 0.36540  0.09450  0.24420  Biso   1.000  H
  H29      1.0000 0.39640  0.23100  0.22850  Biso   1.000  H
  H30      1.0000 0.31540  0.16150  0.16850  Biso   1.000  H
  H31      1.0000 0.24840  0.39670  0.24120  Biso   1.000  H
  H32      1.0000 0.12960  0.35490  0.26040  Biso   1.000  H
  H33      1.0000 0.17550  0.32240  0.17850  Biso   1.000  H
  H34      1.0000 0.30630  0.16020  0.37930  Biso   1.000  H
  H35      1.0000 0.21930  0.26530  0.38390  Biso   1.000  H
  H36      1.0000 0.33830  0.29470  0.35870  Biso   1.000  H
  Pt3      1.0000 0.99044  0.05260  0.83173  Biso   1.000  Pt
  O11      1.0000 0.12620  0.92080  0.68881  Biso   1.000  O
  O12      1.0000 0.85060  0.92180  0.98797  Biso   1.000  O
  O13      1.0000 0.05130  0.83300  0.97222  Biso   1.000  O
  O14      1.0000 0.77470  0.74110  0.96080  Biso   1.000  O
  O15      1.0000 0.98470  0.65370  0.93190  Biso   1.000  O
  N7       1.0000 0.10690  0.92640  0.82140  Biso   1.000  N
  N8       1.0000 0.88000  0.18470  0.85280  Biso   1.000  N
  N9       1.0000 0.09460  0.19420  0.84800  Biso   1.000  N
  C35      1.0000 0.77380  0.16610  0.86300  Biso   1.000  C
  C36      1.0000 0.70690  0.25960  0.88620  Biso   1.000  C
  C37      1.0000 0.75130  0.37560  0.89790  Biso   1.000  C
  C38      1.0000 0.86110  0.39440  0.88830  Biso   1.000  C
  C39      1.0000 0.92510  0.29710  0.86640  Biso   1.000  C
  C40      1.0000 0.04470  0.30370  0.86070  Biso   1.000  C
  C41      1.0000 0.10690  0.40900  0.87010  Biso   1.000  C
  C42      1.0000 0.21890  0.40180  0.86640  Biso   1.000  C
  C43      1.0000 0.26790  0.29080  0.85290  Biso   1.000  C
  C44      1.0000 0.20410  0.18890  0.84470  Biso   1.000  C
  C45      1.0000 0.15210  0.88380  0.76020  Biso   1.000  C
  C46      1.0000 0.24180  0.78690  0.76870  Biso   1.000  C
  C47      1.0000 0.33860  0.82880  0.72330  Biso   1.000  C
  C48      1.0000 0.19440  0.66700  0.73400  Biso   1.000  C
  C49      1.0000 0.28010  0.76460  0.85590  Biso   1.000  C
  C50      1.0000 0.85480  0.80740  0.96810  Biso   1.000  C
  C51      1.0000 0.97030  0.75760  0.95480  Biso   1.000  C
  H37      1.0000 0.13130  0.89480  0.86550  Biso   1.000  H
  H38      1.0000 0.74400  0.08860  0.85440  Biso   1.000  H
  H39      1.0000 0.63290  0.24520  0.89380  Biso   1.000  H
  H40      1.0000 0.70680  0.44000  0.91220  Biso   1.000  H
  H41      1.0000 0.89210  0.47140  0.89640  Biso   1.000  H
  H42      1.0000 0.07310  0.48360  0.87870  Biso   1.000  H
  H43      1.0000 0.26190  0.47180  0.87310  Biso   1.000  H
  H44      1.0000 0.34370  0.28560  0.84950  Biso   1.000  H
  H45      1.0000 0.23750  0.11390  0.83660  Biso   1.000  H
  H46      1.0000 0.36540  0.90550  0.74420  Biso   1.000  H
  H47      1.0000 0.39640  0.76900  0.72850  Biso   1.000  H
  H48      1.0000 0.31540  0.83850  0.66850  Biso   1.000  H
  H49      1.0000 0.24840  0.60330  0.74120  Biso   1.000  H
  H50      1.0000 0.12960  0.64510  0.76040  Biso   1.000  H
  H51      1.0000 0.17550  0.67760  0.67850  Biso   1.000  H
  H52      1.0000 0.30630  0.83980  0.87930  Biso   1.000  H
  H53      1.0000 0.21930  0.73470  0.88390  Biso   1.000  H
  H54      1.0000 0.33830  0.70530  0.85870  Biso   1.000  H
  Pt4      1.0000 0.00956  0.05260  0.66827  Biso   1.000  Pt
  O16      1.0000 0.87380  0.92080  0.81119  Biso   1.000  O
  O17      1.0000 0.14940  0.92180  0.51203  Biso   1.000  O
  O18      1.0000 0.94870  0.83300  0.52778  Biso   1.000  O
  O19      1.0000 0.22530  0.74110  0.53920  Biso   1.000  O
  O20      1.0000 0.01530  0.65370  0.56810  Biso   1.000  O
  N10      1.0000 0.89310  0.92640  0.67860  Biso   1.000  N
  N11      1.0000 0.12000  0.18470  0.64720  Biso   1.000  N
  N12      1.0000 0.90540  0.19420  0.65200  Biso   1.000  N
  C52      1.0000 0.22620  0.16610  0.63700  Biso   1.000  C
  C53      1.0000 0.29310  0.25960  0.61380  Biso   1.000  C
  C54      1.0000 0.24870  0.37560  0.60210  Biso   1.000  C
  C55      1.0000 0.13890  0.39440  0.61170  Biso   1.000  C
  C56      1.0000 0.07490  0.29710  0.63360  Biso   1.000  C
  C57      1.0000 0.95530  0.30370  0.63930  Biso   1.000  C
  C58      1.0000 0.89310  0.40900  0.62990  Biso   1.000  C
  C59      1.0000 0.78110  0.40180  0.63360  Biso   1.000  C
  C60      1.0000 0.73210  0.29080  0.64710  Biso   1.000  C
  C61      1.0000 0.79590  0.18890  0.65530  Biso   1.000  C
  C62      1.0000 0.84790  0.88380  0.73980  Biso   1.000  C
  C63      1.0000 0.75820  0.78690  0.73130  Biso   1.000  C
  C64      1.0000 0.66140  0.82880  0.77670  Biso   1.000  C
  C65      1.0000 0.80560  0.66700  0.76600  Biso   1.000  C
  C66      1.0000 0.71990  0.76460  0.64410  Biso   1.000  C
  C67      1.0000 0.14520  0.80740  0.53190  Biso   1.000  C
  C68      1.0000 0.02970  0.75760  0.54520  Biso   1.000  C
  H55      1.0000 0.86870  0.89480  0.63450  Biso   1.000  H
  H56      1.0000 0.25600  0.08860  0.64560  Biso   1.000  H
  H57      1.0000 0.36710  0.24520  0.60620  Biso   1.000  H
  H58      1.0000 0.29320  0.44000  0.58780  Biso   1.000  H
  H59      1.0000 0.10790  0.47140  0.60360  Biso   1.000  H
  H60      1.0000 0.92690  0.48360  0.62130  Biso   1.000  H
  H61      1.0000 0.73810  0.47180  0.62690  Biso   1.000  H
  H62      1.0000 0.65630  0.28560  0.65050  Biso   1.000  H
  H63      1.0000 0.76250  0.11390  0.66340  Biso   1.000  H
  H64      1.0000 0.63460  0.90550  0.75580  Biso   1.000  H
  H65      1.0000 0.60360  0.76900  0.77150  Biso   1.000  H
  H66      1.0000 0.68460  0.83850  0.83150  Biso   1.000  H
  H67      1.0000 0.75160  0.60330  0.75880  Biso   1.000  H
  H68      1.0000 0.87040  0.64510  0.73960  Biso   1.000  H
  H69      1.0000 0.82450  0.67760  0.82150  Biso   1.000  H
  H70      1.0000 0.69370  0.83980  0.62070  Biso   1.000  H
  H71      1.0000 0.78070  0.73470  0.61610  Biso   1.000  H
  H72      1.0000 0.66170  0.70530  0.64130  Biso   1.000  H
  Pt5      1.0000 0.00000  0.00000  0.00000  Biso   1.000  Pt
  Pt6      1.0000 0.00000  0.00000  0.50000  Biso   1.000  Pt
