data_image0
_cell_length_a       18.7199
_cell_length_b       9.6901
_cell_length_c       23.7454
_cell_angle_alpha    90
_cell_angle_beta     101.185
_cell_angle_gamma    90

_symmetry_space_group_name_H-M    "P 1"
_symmetry_int_tables_number       1

loop_
  _symmetry_equiv_pos_as_xyz
  'x, y, z'

loop_
  _atom_site_label
  _atom_site_occupancy
  _atom_site_fract_x
  _atom_site_fract_y
  _atom_site_fract_z
  _atom_site_thermal_displace_type
  _atom_site_B_iso_or_equiv
  _atom_site_type_symbol
  Pt1      1.0000 0.66401  0.81175  0.96874  Biso   1.000  Pt
  Pt2      1.0000 0.82723  0.81373  0.97813  Biso   1.000  Pt
  N1       1.0000 0.69060  0.97440  0.02220  Biso   1.000  N
  N2       1.0000 0.81120  0.98860  0.02009  Biso   1.000  N
  H1       1.0000 0.84960  0.04240  0.02920  Biso   1.000  H
  N3       1.0000 0.67560  0.93220  0.90196  Biso   1.000  N
  N4       1.0000 0.79601  0.91180  0.90178  Biso   1.000  N
  H2       1.0000 0.82940  0.92170  0.88060  Biso   1.000  H
  H3       1.0000 0.65570  0.00890  0.03800  Biso   1.000  H
  H4       1.0000 0.63520  0.97170  0.88400  Biso   1.000  H
  N5       1.0000 0.62950  0.64530  0.92128  Biso   1.000  N
  N6       1.0000 0.64180  0.68750  0.03069  Biso   1.000  N
  N7       1.0000 0.85470  0.64120  0.94197  Biso   1.000  N
  N8       1.0000 0.86620  0.70710  0.04885  Biso   1.000  N
  C1       1.0000 0.62440  0.63390  0.86380  Biso   1.000  C
  H5       1.0000 0.64030  0.70800  0.84310  Biso   1.000  H
  C2       1.0000 0.59660  0.51690  0.83500  Biso   1.000  C
  H6       1.0000 0.59400  0.51100  0.79470  Biso   1.000  H
  C3       1.0000 0.84700  0.61750  0.88470  Biso   1.000  C
  H7       1.0000 0.82290  0.68430  0.85840  Biso   1.000  H
  C4       1.0000 0.87300  0.49980  0.86380  Biso   1.000  C
  H8       1.0000 0.86810  0.48650  0.82360  Biso   1.000  H
  C5       1.0000 0.90630  0.40130  0.90140  Biso   1.000  C
  H9       1.0000 0.92390  0.31850  0.88760  Biso   1.000  H
  C6       1.0000 0.91370  0.42420  0.95940  Biso   1.000  C
  H10      1.0000 0.93650  0.35680  0.98600  Biso   1.000  H
  C7       1.0000 0.88810  0.54500  0.97900  Biso   1.000  C
  C8       1.0000 0.89370  0.58100  0.04000  Biso   1.000  C
  C9       1.0000 0.92400  0.49600  0.08500  Biso   1.000  C
  H11      1.0000 0.94300  0.40830  0.07780  Biso   1.000  H
  C10      1.0000 0.57280  0.40960  0.86320  Biso   1.000  C
  H12      1.0000 0.55310  0.32920  0.84300  Biso   1.000  H
  C11      1.0000 0.57800  0.42040  0.92200  Biso   1.000  C
  H13      1.0000 0.56260  0.34630  0.94300  Biso   1.000  H
  C12      1.0000 0.60580  0.54040  0.95020  Biso   1.000  C
  C13      1.0000 0.61180  0.56350  0.01230  Biso   1.000  C
  C14      1.0000 0.58880  0.47190  0.04910  Biso   1.000  C
  H14      1.0000 0.56670  0.38710  0.03520  Biso   1.000  H
  C15      1.0000 0.59850  0.50520  0.10680  Biso   1.000  C
  H15      1.0000 0.58390  0.44260  0.13320  Biso   1.000  H
  C16      1.0000 0.86840  0.74860  0.10290  Biso   1.000  C
  H16      1.0000 0.84890  0.83630  0.10970  Biso   1.000  H
  C17      1.0000 0.89840  0.66650  0.14950  Biso   1.000  C
  H17      1.0000 0.89940  0.69810  0.18750  Biso   1.000  H
  C18      1.0000 0.92640  0.54020  0.14030  Biso   1.000  C
  H18      1.0000 0.94730  0.48350  0.17190  Biso   1.000  H
  C19      1.0000 0.75160  0.28570  0.02850  Biso   1.000  C
  H19      1.0000 0.75470  0.37350  0.04930  Biso   1.000  H
  H20      1.0000 0.70440  0.27930  0.00220  Biso   1.000  H
  H21      1.0000 0.79080  0.28070  0.00650  Biso   1.000  H
  C20      1.0000 0.70020  0.17220  0.10700  Biso   1.000  C
  H22      1.0000 0.70380  0.09050  0.13170  Biso   1.000  H
  H23      1.0000 0.65230  0.17400  0.08150  Biso   1.000  H
  H24      1.0000 0.70640  0.25550  0.13080  Biso   1.000  H
  C21      1.0000 0.72900  0.05510  0.82960  Biso   1.000  C
  C22      1.0000 0.65180  0.09560  0.80270  Biso   1.000  C
  H25      1.0000 0.62380  0.01270  0.78900  Biso   1.000  H
  H26      1.0000 0.65250  0.15810  0.77040  Biso   1.000  H
  H27      1.0000 0.62910  0.14220  0.83140  Biso   1.000  H
  C23      1.0000 0.76490  0.98220  0.78510  Biso   1.000  C
  H28      1.0000 0.74020  0.89430  0.77430  Biso   1.000  H
  H29      1.0000 0.81630  0.96490  0.80150  Biso   1.000  H
  H30      1.0000 0.76130  0.04080  0.75100  Biso   1.000  H
  C24      1.0000 0.77400  0.18610  0.85180  Biso   1.000  C
  H31      1.0000 0.78210  0.24130  0.81910  Biso   1.000  H
  H32      1.0000 0.82100  0.15820  0.87490  Biso   1.000  H
  H33      1.0000 0.74710  0.24100  0.87550  Biso   1.000  H
  C25      1.0000 0.73290  0.96060  0.88130  Biso   1.000  C
  C26      1.0000 0.75360  0.03250  0.03540  Biso   1.000  C
  C27      1.0000 0.75930  0.16650  0.07120  Biso   1.000  C
  C28      1.0000 0.65020  0.72000  0.08620  Biso   1.000  C
  H34      1.0000 0.67090  0.80650  0.09920  Biso   1.000  H
  C29      1.0000 0.62920  0.62930  0.12540  Biso   1.000  C
  H35      1.0000 0.63610  0.65330  0.16490  Biso   1.000  H
  C30      1.0000 0.83280  0.17670  0.11140  Biso   1.000  C
  H36      1.0000 0.83340  0.25750  0.13630  Biso   1.000  H
  H37      1.0000 0.87120  0.18590  0.08880  Biso   1.000  H
  H38      1.0000 0.84130  0.09310  0.13500  Biso   1.000  H
  Pt3      1.0000 0.83599  0.31175  0.53126  Biso   1.000  Pt
  Pt4      1.0000 0.67277  0.31373  0.52187  Biso   1.000  Pt
  N9       1.0000 0.80940  0.47440  0.47780  Biso   1.000  N
  N10      1.0000 0.68880  0.48860  0.47991  Biso   1.000  N
  H39      1.0000 0.65040  0.54240  0.47080  Biso   1.000  H
  N11      1.0000 0.82440  0.43220  0.59804  Biso   1.000  N
  N12      1.0000 0.70399  0.41180  0.59822  Biso   1.000  N
  H40      1.0000 0.67060  0.42170  0.61940  Biso   1.000  H
  H41      1.0000 0.84430  0.50890  0.46200  Biso   1.000  H
  H42      1.0000 0.86480  0.47170  0.61600  Biso   1.000  H
  N13      1.0000 0.87050  0.14530  0.57872  Biso   1.000  N
  N14      1.0000 0.85820  0.18750  0.46931  Biso   1.000  N
  N15      1.0000 0.64530  0.14120  0.55803  Biso   1.000  N
  N16      1.0000 0.63380  0.20710  0.45115  Biso   1.000  N
  C31      1.0000 0.87560  0.13390  0.63620  Biso   1.000  C
  H43      1.0000 0.85970  0.20800  0.65690  Biso   1.000  H
  C32      1.0000 0.90340  0.01690  0.66500  Biso   1.000  C
  H44      1.0000 0.90600  0.01100  0.70530  Biso   1.000  H
  C33      1.0000 0.65300  0.11750  0.61530  Biso   1.000  C
  H45      1.0000 0.67710  0.18430  0.64160  Biso   1.000  H
  C34      1.0000 0.62700  0.99980  0.63620  Biso   1.000  C
  H46      1.0000 0.63190  0.98650  0.67640  Biso   1.000  H
  C35      1.0000 0.59370  0.90130  0.59860  Biso   1.000  C
  H47      1.0000 0.57610  0.81850  0.61240  Biso   1.000  H
  C36      1.0000 0.58630  0.92420  0.54060  Biso   1.000  C
  H48      1.0000 0.56350  0.85680  0.51400  Biso   1.000  H
  C37      1.0000 0.61190  0.04500  0.52100  Biso   1.000  C
  C38      1.0000 0.60630  0.08100  0.46000  Biso   1.000  C
  C39      1.0000 0.57600  0.99600  0.41500  Biso   1.000  C
  H49      1.0000 0.55700  0.90830  0.42220  Biso   1.000  H
  C40      1.0000 0.92720  0.90960  0.63680  Biso   1.000  C
  H50      1.0000 0.94690  0.82920  0.65700  Biso   1.000  H
  C41      1.0000 0.92200  0.92040  0.57800  Biso   1.000  C
  H51      1.0000 0.93740  0.84630  0.55700  Biso   1.000  H
  C42      1.0000 0.89420  0.04040  0.54980  Biso   1.000  C
  C43      1.0000 0.88820  0.06350  0.48770  Biso   1.000  C
  C44      1.0000 0.91120  0.97190  0.45090  Biso   1.000  C
  H52      1.0000 0.93330  0.88710  0.46480  Biso   1.000  H
  C45      1.0000 0.90150  0.00520  0.39320  Biso   1.000  C
  H53      1.0000 0.91610  0.94260  0.36680  Biso   1.000  H
  C46      1.0000 0.63160  0.24860  0.39710  Biso   1.000  C
  H54      1.0000 0.65110  0.33630  0.39030  Biso   1.000  H
  C47      1.0000 0.60160  0.16650  0.35050  Biso   1.000  C
  H55      1.0000 0.60060  0.19810  0.31250  Biso   1.000  H
  C48      1.0000 0.57360  0.04020  0.35970  Biso   1.000  C
  H56      1.0000 0.55270  0.98350  0.32810  Biso   1.000  H
  C49      1.0000 0.74840  0.78570  0.47150  Biso   1.000  C
  H57      1.0000 0.74530  0.87350  0.45070  Biso   1.000  H
  H58      1.0000 0.79560  0.77930  0.49780  Biso   1.000  H
  H59      1.0000 0.70920  0.78070  0.49350  Biso   1.000  H
  C50      1.0000 0.79980  0.67220  0.39300  Biso   1.000  C
  H60      1.0000 0.79620  0.59050  0.36830  Biso   1.000  H
  H61      1.0000 0.84770  0.67400  0.41850  Biso   1.000  H
  H62      1.0000 0.79360  0.75550  0.36920  Biso   1.000  H
  C51      1.0000 0.77100  0.55510  0.67040  Biso   1.000  C
  C52      1.0000 0.84820  0.59560  0.69730  Biso   1.000  C
  H63      1.0000 0.87620  0.51270  0.71100  Biso   1.000  H
  H64      1.0000 0.84750  0.65810  0.72960  Biso   1.000  H
  H65      1.0000 0.87090  0.64220  0.66860  Biso   1.000  H
  C53      1.0000 0.73510  0.48220  0.71490  Biso   1.000  C
  H66      1.0000 0.75980  0.39430  0.72570  Biso   1.000  H
  H67      1.0000 0.68370  0.46490  0.69850  Biso   1.000  H
  H68      1.0000 0.73870  0.54080  0.74900  Biso   1.000  H
  C54      1.0000 0.72600  0.68610  0.64820  Biso   1.000  C
  H69      1.0000 0.71790  0.74130  0.68090  Biso   1.000  H
  H70      1.0000 0.67900  0.65820  0.62510  Biso   1.000  H
  H71      1.0000 0.75290  0.74100  0.62450  Biso   1.000  H
  C55      1.0000 0.76710  0.46060  0.61870  Biso   1.000  C
  C56      1.0000 0.74640  0.53250  0.46460  Biso   1.000  C
  C57      1.0000 0.74070  0.66650  0.42880  Biso   1.000  C
  C58      1.0000 0.84980  0.22000  0.41380  Biso   1.000  C
  H72      1.0000 0.82910  0.30650  0.40080  Biso   1.000  H
  C59      1.0000 0.87080  0.12930  0.37460  Biso   1.000  C
  H73      1.0000 0.86390  0.15330  0.33510  Biso   1.000  H
  C60      1.0000 0.66720  0.67670  0.38860  Biso   1.000  C
  H74      1.0000 0.66660  0.75750  0.36370  Biso   1.000  H
  H75      1.0000 0.62880  0.68590  0.41120  Biso   1.000  H
  H76      1.0000 0.65870  0.59310  0.36500  Biso   1.000  H
  Pt5      1.0000 0.33599  0.18825  0.03126  Biso   1.000  Pt
  Pt6      1.0000 0.17277  0.18627  0.02187  Biso   1.000  Pt
  N17      1.0000 0.30940  0.02560  0.97780  Biso   1.000  N
  N18      1.0000 0.18880  0.01140  0.97991  Biso   1.000  N
  H77      1.0000 0.15040  0.95760  0.97080  Biso   1.000  H
  N19      1.0000 0.32440  0.06780  0.09804  Biso   1.000  N
  N20      1.0000 0.20399  0.08820  0.09822  Biso   1.000  N
  H78      1.0000 0.17060  0.07830  0.11940  Biso   1.000  H
  H79      1.0000 0.34430  0.99110  0.96200  Biso   1.000  H
  H80      1.0000 0.36480  0.02830  0.11600  Biso   1.000  H
  N21      1.0000 0.37050  0.35470  0.07872  Biso   1.000  N
  N22      1.0000 0.35820  0.31250  0.96931  Biso   1.000  N
  N23      1.0000 0.14530  0.35880  0.05803  Biso   1.000  N
  N24      1.0000 0.13380  0.29290  0.95115  Biso   1.000  N
  C61      1.0000 0.37560  0.36610  0.13620  Biso   1.000  C
  H81      1.0000 0.35970  0.29200  0.15690  Biso   1.000  H
  C62      1.0000 0.40340  0.48310  0.16500  Biso   1.000  C
  H82      1.0000 0.40600  0.48900  0.20530  Biso   1.000  H
  C63      1.0000 0.15300  0.38250  0.11530  Biso   1.000  C
  H83      1.0000 0.17710  0.31570  0.14160  Biso   1.000  H
  C64      1.0000 0.12700  0.50020  0.13620  Biso   1.000  C
  H84      1.0000 0.13190  0.51350  0.17640  Biso   1.000  H
  C65      1.0000 0.09370  0.59870  0.09860  Biso   1.000  C
  H85      1.0000 0.07610  0.68150  0.11240  Biso   1.000  H
  C66      1.0000 0.08630  0.57580  0.04060  Biso   1.000  C
  H86      1.0000 0.06350  0.64320  0.01400  Biso   1.000  H
  C67      1.0000 0.11190  0.45500  0.02100  Biso   1.000  C
  C68      1.0000 0.10630  0.41900  0.96000  Biso   1.000  C
  C69      1.0000 0.07600  0.50400  0.91500  Biso   1.000  C
  H87      1.0000 0.05700  0.59170  0.92220  Biso   1.000  H
  C70      1.0000 0.42720  0.59040  0.13680  Biso   1.000  C
  H88      1.0000 0.44690  0.67080  0.15700  Biso   1.000  H
  C71      1.0000 0.42200  0.57960  0.07800  Biso   1.000  C
  H89      1.0000 0.43740  0.65370  0.05700  Biso   1.000  H
  C72      1.0000 0.39420  0.45960  0.04980  Biso   1.000  C
  C73      1.0000 0.38820  0.43650  0.98770  Biso   1.000  C
  C74      1.0000 0.41120  0.52810  0.95090  Biso   1.000  C
  H90      1.0000 0.43330  0.61290  0.96480  Biso   1.000  H
  C75      1.0000 0.40150  0.49480  0.89320  Biso   1.000  C
  H91      1.0000 0.41610  0.55740  0.86680  Biso   1.000  H
  C76      1.0000 0.13160  0.25140  0.89710  Biso   1.000  C
  H92      1.0000 0.15110  0.16370  0.89030  Biso   1.000  H
  C77      1.0000 0.10160  0.33350  0.85050  Biso   1.000  C
  H93      1.0000 0.10060  0.30190  0.81250  Biso   1.000  H
  C78      1.0000 0.07360  0.45980  0.85970  Biso   1.000  C
  H94      1.0000 0.05270  0.51650  0.82810  Biso   1.000  H
  C79      1.0000 0.24840  0.71430  0.97150  Biso   1.000  C
  H95      1.0000 0.24530  0.62650  0.95070  Biso   1.000  H
  H96      1.0000 0.29560  0.72070  0.99780  Biso   1.000  H
  H97      1.0000 0.20920  0.71930  0.99350  Biso   1.000  H
  C80      1.0000 0.29980  0.82780  0.89300  Biso   1.000  C
  H98      1.0000 0.29620  0.90950  0.86830  Biso   1.000  H
  H99      1.0000 0.34770  0.82600  0.91850  Biso   1.000  H
  H100     1.0000 0.29360  0.74450  0.86920  Biso   1.000  H
  C81      1.0000 0.27100  0.94490  0.17040  Biso   1.000  C
  C82      1.0000 0.34820  0.90440  0.19730  Biso   1.000  C
  H101     1.0000 0.37620  0.98730  0.21100  Biso   1.000  H
  H102     1.0000 0.34750  0.84190  0.22960  Biso   1.000  H
  H103     1.0000 0.37090  0.85780  0.16860  Biso   1.000  H
  C83      1.0000 0.23510  0.01780  0.21490  Biso   1.000  C
  H104     1.0000 0.25980  0.10570  0.22570  Biso   1.000  H
  H105     1.0000 0.18370  0.03510  0.19850  Biso   1.000  H
  H106     1.0000 0.23870  0.95920  0.24900  Biso   1.000  H
  C84      1.0000 0.22600  0.81390  0.14820  Biso   1.000  C
  H107     1.0000 0.21790  0.75870  0.18090  Biso   1.000  H
  H108     1.0000 0.17900  0.84180  0.12510  Biso   1.000  H
  H109     1.0000 0.25290  0.75900  0.12450  Biso   1.000  H
  C85      1.0000 0.26710  0.03940  0.11870  Biso   1.000  C
  C86      1.0000 0.24640  0.96750  0.96460  Biso   1.000  C
  C87      1.0000 0.24070  0.83350  0.92880  Biso   1.000  C
  C88      1.0000 0.34980  0.28000  0.91380  Biso   1.000  C
  H110     1.0000 0.32910  0.19350  0.90080  Biso   1.000  H
  C89      1.0000 0.37080  0.37070  0.87460  Biso   1.000  C
  H111     1.0000 0.36390  0.34670  0.83510  Biso   1.000  H
  C90      1.0000 0.16720  0.82330  0.88860  Biso   1.000  C
  H112     1.0000 0.16660  0.74250  0.86370  Biso   1.000  H
  H113     1.0000 0.12880  0.81410  0.91120  Biso   1.000  H
  H114     1.0000 0.15870  0.90690  0.86500  Biso   1.000  H
  Pt7      1.0000 0.16401  0.68825  0.46874  Biso   1.000  Pt
  Pt8      1.0000 0.32723  0.68627  0.47813  Biso   1.000  Pt
  N25      1.0000 0.19060  0.52560  0.52220  Biso   1.000  N
  N26      1.0000 0.31120  0.51140  0.52009  Biso   1.000  N
  H115     1.0000 0.34960  0.45760  0.52920  Biso   1.000  H
  N27      1.0000 0.17560  0.56780  0.40196  Biso   1.000  N
  N28      1.0000 0.29601  0.58820  0.40178  Biso   1.000  N
  H116     1.0000 0.32940  0.57830  0.38060  Biso   1.000  H
  H117     1.0000 0.15570  0.49110  0.53800  Biso   1.000  H
  H118     1.0000 0.13520  0.52830  0.38400  Biso   1.000  H
  N29      1.0000 0.12950  0.85470  0.42128  Biso   1.000  N
  N30      1.0000 0.14180  0.81250  0.53069  Biso   1.000  N
  N31      1.0000 0.35470  0.85880  0.44197  Biso   1.000  N
  N32      1.0000 0.36620  0.79290  0.54885  Biso   1.000  N
  C91      1.0000 0.12440  0.86610  0.36380  Biso   1.000  C
  H119     1.0000 0.14030  0.79200  0.34310  Biso   1.000  H
  C92      1.0000 0.09660  0.98310  0.33500  Biso   1.000  C
  H120     1.0000 0.09400  0.98900  0.29470  Biso   1.000  H
  C93      1.0000 0.34700  0.88250  0.38470  Biso   1.000  C
  H121     1.0000 0.32290  0.81570  0.35840  Biso   1.000  H
  C94      1.0000 0.37300  0.00020  0.36380  Biso   1.000  C
  H122     1.0000 0.36810  0.01350  0.32360  Biso   1.000  H
  C95      1.0000 0.40630  0.09870  0.40140  Biso   1.000  C
  H123     1.0000 0.42390  0.18150  0.38760  Biso   1.000  H
  C96      1.0000 0.41370  0.07580  0.45940  Biso   1.000  C
  H124     1.0000 0.43650  0.14320  0.48600  Biso   1.000  H
  C97      1.0000 0.38810  0.95500  0.47900  Biso   1.000  C
  C98      1.0000 0.39370  0.91900  0.54000  Biso   1.000  C
  C99      1.0000 0.42400  0.00400  0.58500  Biso   1.000  C
  H125     1.0000 0.44300  0.09170  0.57780  Biso   1.000  H
  C100     1.0000 0.07280  0.09040  0.36320  Biso   1.000  C
  H126     1.0000 0.05310  0.17080  0.34300  Biso   1.000  H
  C101     1.0000 0.07800  0.07960  0.42200  Biso   1.000  C
  H127     1.0000 0.06260  0.15370  0.44300  Biso   1.000  H
  C102     1.0000 0.10580  0.95960  0.45020  Biso   1.000  C
  C103     1.0000 0.11180  0.93650  0.51230  Biso   1.000  C
  C104     1.0000 0.08880  0.02810  0.54910  Biso   1.000  C
  H128     1.0000 0.06670  0.11290  0.53520  Biso   1.000  H
  C105     1.0000 0.09850  0.99480  0.60680  Biso   1.000  C
  H129     1.0000 0.08390  0.05740  0.63320  Biso   1.000  H
  C106     1.0000 0.36840  0.75140  0.60290  Biso   1.000  C
  H130     1.0000 0.34890  0.66370  0.60970  Biso   1.000  H
  C107     1.0000 0.39840  0.83350  0.64950  Biso   1.000  C
  H131     1.0000 0.39940  0.80190  0.68750  Biso   1.000  H
  C108     1.0000 0.42640  0.95980  0.64030  Biso   1.000  C
  H132     1.0000 0.44730  0.01650  0.67190  Biso   1.000  H
  C109     1.0000 0.25160  0.21430  0.52850  Biso   1.000  C
  H133     1.0000 0.25470  0.12650  0.54930  Biso   1.000  H
  H134     1.0000 0.20440  0.22070  0.50220  Biso   1.000  H
  H135     1.0000 0.29080  0.21930  0.50650  Biso   1.000  H
  C110     1.0000 0.20020  0.32780  0.60700  Biso   1.000  C
  H136     1.0000 0.20380  0.40950  0.63170  Biso   1.000  H
  H137     1.0000 0.15230  0.32600  0.58150  Biso   1.000  H
  H138     1.0000 0.20640  0.24450  0.63080  Biso   1.000  H
  C111     1.0000 0.22900  0.44490  0.32960  Biso   1.000  C
  C112     1.0000 0.15180  0.40440  0.30270  Biso   1.000  C
  H139     1.0000 0.12380  0.48730  0.28900  Biso   1.000  H
  H140     1.0000 0.15250  0.34190  0.27040  Biso   1.000  H
  H141     1.0000 0.12910  0.35780  0.33140  Biso   1.000  H
  C113     1.0000 0.26490  0.51780  0.28510  Biso   1.000  C
  H142     1.0000 0.24020  0.60570  0.27430  Biso   1.000  H
  H143     1.0000 0.31630  0.53510  0.30150  Biso   1.000  H
  H144     1.0000 0.26130  0.45920  0.25100  Biso   1.000  H
  C114     1.0000 0.27400  0.31390  0.35180  Biso   1.000  C
  H145     1.0000 0.28210  0.25870  0.31910  Biso   1.000  H
  H146     1.0000 0.32100  0.34180  0.37490  Biso   1.000  H
  H147     1.0000 0.24710  0.25900  0.37550  Biso   1.000  H
  C115     1.0000 0.23290  0.53940  0.38130  Biso   1.000  C
  C116     1.0000 0.25360  0.46750  0.53540  Biso   1.000  C
  C117     1.0000 0.25930  0.33350  0.57120  Biso   1.000  C
  C118     1.0000 0.15020  0.78000  0.58620  Biso   1.000  C
  H148     1.0000 0.17090  0.69350  0.59920  Biso   1.000  H
  C119     1.0000 0.12920  0.87070  0.62540  Biso   1.000  C
  H149     1.0000 0.13610  0.84670  0.66490  Biso   1.000  H
  C120     1.0000 0.33280  0.32330  0.61140  Biso   1.000  C
  H150     1.0000 0.33340  0.24250  0.63630  Biso   1.000  H
  H151     1.0000 0.37120  0.31410  0.58880  Biso   1.000  H
  H152     1.0000 0.34130  0.40690  0.63500  Biso   1.000  H
