data_image0
_cell_length_a       8.889
_cell_length_b       5.114
_cell_length_c       16.291
_cell_angle_alpha    90
_cell_angle_beta     100.396
_cell_angle_gamma    90

_symmetry_space_group_name_H-M    "P 1"
_symmetry_int_tables_number       1

loop_
  _symmetry_equiv_pos_as_xyz
  'x, y, z'

loop_
  _atom_site_label
  _atom_site_occupancy
  _atom_site_fract_x
  _atom_site_fract_y
  _atom_site_fract_z
  _atom_site_thermal_displace_type
  _atom_site_B_iso_or_equiv
  _atom_site_type_symbol
  O1       1.0000 0.15790  0.26980  0.05353  Biso   1.000  O
  N1       1.0000 0.03130  0.86750  0.13140  Biso   1.000  N
  C1       1.0000 0.20520  0.24010  0.13600  Biso   1.000  C
  C2       1.0000 0.14490  0.03890  0.18040  Biso   1.000  C
  C3       1.0000 0.19270  0.00810  0.26560  Biso   1.000  C
  C4       1.0000 0.30100  0.17420  0.31060  Biso   1.000  C
  C5       1.0000 0.36260  0.37550  0.26780  Biso   1.000  C
  C6       1.0000 0.31500  0.40520  0.18200  Biso   1.000  C
  H1       1.0000 0.93330  0.87810  0.15190  Biso   1.000  H
  H2       1.0000 0.06720  0.68400  0.13590  Biso   1.000  H
  H3       1.0000 0.15060  0.87110  0.29370  Biso   1.000  H
  H4       1.0000 0.33290  0.15230  0.36900  Biso   1.000  H
  H5       1.0000 0.43670  0.49120  0.29750  Biso   1.000  H
  H6       1.0000 0.35820  0.54110  0.15390  Biso   1.000  H
  O2       1.0000 0.84210  0.73020  0.94647  Biso   1.000  O
  N2       1.0000 0.96870  0.13250  0.86860  Biso   1.000  N
  C7       1.0000 0.79480  0.75990  0.86400  Biso   1.000  C
  C8       1.0000 0.85510  0.96110  0.81960  Biso   1.000  C
  C9       1.0000 0.80730  0.99190  0.73440  Biso   1.000  C
  C10      1.0000 0.69900  0.82580  0.68940  Biso   1.000  C
  C11      1.0000 0.63740  0.62450  0.73220  Biso   1.000  C
  C12      1.0000 0.68500  0.59480  0.81800  Biso   1.000  C
  H7       1.0000 0.06670  0.12190  0.84810  Biso   1.000  H
  H8       1.0000 0.93280  0.31600  0.86410  Biso   1.000  H
  H9       1.0000 0.84940  0.12890  0.70630  Biso   1.000  H
  H10      1.0000 0.66710  0.84770  0.63100  Biso   1.000  H
  H11      1.0000 0.56330  0.50880  0.70250  Biso   1.000  H
  H12      1.0000 0.64180  0.45890  0.84610  Biso   1.000  H
  Fe1      1.0000 0.00000  0.00000  0.00000  Biso   1.000  Fe
  O3       1.0000 0.84210  0.76980  0.44647  Biso   1.000  O
  N3       1.0000 0.96870  0.36750  0.36860  Biso   1.000  N
  C13      1.0000 0.79480  0.74010  0.36400  Biso   1.000  C
  C14      1.0000 0.85510  0.53890  0.31960  Biso   1.000  C
  C15      1.0000 0.80730  0.50810  0.23440  Biso   1.000  C
  C16      1.0000 0.69900  0.67420  0.18940  Biso   1.000  C
  C17      1.0000 0.63740  0.87550  0.23220  Biso   1.000  C
  C18      1.0000 0.68500  0.90520  0.31800  Biso   1.000  C
  H13      1.0000 0.06670  0.37810  0.34810  Biso   1.000  H
  H14      1.0000 0.93280  0.18400  0.36410  Biso   1.000  H
  H15      1.0000 0.84940  0.37110  0.20630  Biso   1.000  H
  H16      1.0000 0.66710  0.65230  0.13100  Biso   1.000  H
  H17      1.0000 0.56330  0.99120  0.20250  Biso   1.000  H
  H18      1.0000 0.64180  0.04110  0.34610  Biso   1.000  H
  O4       1.0000 0.15790  0.23020  0.55353  Biso   1.000  O
  N4       1.0000 0.03130  0.63250  0.63140  Biso   1.000  N
  C19      1.0000 0.20520  0.25990  0.63600  Biso   1.000  C
  C20      1.0000 0.14490  0.46110  0.68040  Biso   1.000  C
  C21      1.0000 0.19270  0.49190  0.76560  Biso   1.000  C
  C22      1.0000 0.30100  0.32580  0.81060  Biso   1.000  C
  C23      1.0000 0.36260  0.12450  0.76780  Biso   1.000  C
  C24      1.0000 0.31500  0.09480  0.68200  Biso   1.000  C
  H19      1.0000 0.93330  0.62190  0.65190  Biso   1.000  H
  H20      1.0000 0.06720  0.81600  0.63590  Biso   1.000  H
  H21      1.0000 0.15060  0.62890  0.79370  Biso   1.000  H
  H22      1.0000 0.33290  0.34770  0.86900  Biso   1.000  H
  H23      1.0000 0.43670  0.00880  0.79750  Biso   1.000  H
  H24      1.0000 0.35820  0.95890  0.65390  Biso   1.000  H
  Fe2      1.0000 0.00000  0.50000  0.50000  Biso   1.000  Fe
