data_image0
_cell_length_a       12.8976
_cell_length_b       11.5397
_cell_length_c       17.3986
_cell_angle_alpha    90
_cell_angle_beta     110.138
_cell_angle_gamma    90

_symmetry_space_group_name_H-M    "P 1"
_symmetry_int_tables_number       1

loop_
  _symmetry_equiv_pos_as_xyz
  'x, y, z'

loop_
  _atom_site_label
  _atom_site_occupancy
  _atom_site_fract_x
  _atom_site_fract_y
  _atom_site_fract_z
  _atom_site_thermal_displace_type
  _atom_site_B_iso_or_equiv
  _atom_site_type_symbol
  N1       1.0000 0.89160  0.50950  0.06320  Biso   1.000  N
  N2       1.0000 0.10200  0.39380  0.09030  Biso   1.000  N
  C1       1.0000 0.79430  0.57050  0.04100  Biso   1.000  C
  C2       1.0000 0.74110  0.55120  0.10060  Biso   1.000  C
  H1       1.0000 0.67290  0.58340  0.09980  Biso   1.000  H
  C3       1.0000 0.80710  0.47840  0.15830  Biso   1.000  C
  H2       1.0000 0.79390  0.45000  0.20530  Biso   1.000  H
  C4       1.0000 0.90130  0.45240  0.13410  Biso   1.000  C
  C5       1.0000 0.98640  0.37290  0.17530  Biso   1.000  C
  C6       1.0000 0.07810  0.34660  0.15410  Biso   1.000  C
  C7       1.0000 0.16200  0.26180  0.19610  Biso   1.000  C
  H3       1.0000 0.16470  0.21670  0.24250  Biso   1.000  H
  C8       1.0000 0.23560  0.25950  0.15620  Biso   1.000  C
  H4       1.0000 0.30020  0.21290  0.16960  Biso   1.000  H
  C9       1.0000 0.19730  0.34160  0.08900  Biso   1.000  C
  C10      1.0000 0.75300  0.64060  0.97000  Biso   1.000  C
  C11      1.0000 0.97370  0.31320  0.24800  Biso   1.000  C
  C12      1.0000 0.03220  0.34470  0.32710  Biso   1.000  C
  H5       1.0000 0.08810  0.40230  0.33770  Biso   1.000  H
  C13      1.0000 0.01010  0.29280  0.39140  Biso   1.000  C
  H6       1.0000 0.04980  0.31640  0.44600  Biso   1.000  H
  N3       1.0000 0.93310  0.20940  0.37770  Biso   1.000  N
  O1       1.0000 0.90890  0.16260  0.43940  Biso   1.000  O
  C14      1.0000 0.87800  0.17300  0.30160  Biso   1.000  C
  H7       1.0000 0.82530  0.11240  0.29270  Biso   1.000  H
  C15      1.0000 0.89760  0.22340  0.23580  Biso   1.000  C
  H8       1.0000 0.85880  0.19660  0.18190  Biso   1.000  H
  C16      1.0000 0.64570  0.69870  0.95780  Biso   1.000  C
  C17      1.0000 0.55260  0.66960  0.89260  Biso   1.000  C
  H9       1.0000 0.55750  0.61440  0.85350  Biso   1.000  H
  C18      1.0000 0.45160  0.72100  0.88410  Biso   1.000  C
  H10      1.0000 0.38790  0.70110  0.83880  Biso   1.000  H
  N4       1.0000 0.44360  0.79750  0.93860  Biso   1.000  N
  O2       1.0000 0.34580  0.83880  0.93290  Biso   1.000  O
  C19      1.0000 0.53430  0.83110  0.00010  Biso   1.000  C
  H11      1.0000 0.52750  0.88910  0.03680  Biso   1.000  H
  C20      1.0000 0.63600  0.78500  0.01170  Biso   1.000  C
  H12      1.0000 0.69910  0.81090  0.05540  Biso   1.000  H
  N5       1.0000 0.10840  0.49050  0.93680  Biso   1.000  N
  N6       1.0000 0.89800  0.60620  0.90970  Biso   1.000  N
  C21      1.0000 0.20570  0.42950  0.95900  Biso   1.000  C
  C22      1.0000 0.25890  0.44880  0.89940  Biso   1.000  C
  H13      1.0000 0.32710  0.41660  0.90020  Biso   1.000  H
  C23      1.0000 0.19290  0.52160  0.84170  Biso   1.000  C
  H14      1.0000 0.20610  0.55000  0.79470  Biso   1.000  H
  C24      1.0000 0.09870  0.54760  0.86590  Biso   1.000  C
  C25      1.0000 0.01360  0.62710  0.82470  Biso   1.000  C
  C26      1.0000 0.92190  0.65340  0.84590  Biso   1.000  C
  C27      1.0000 0.83800  0.73820  0.80390  Biso   1.000  C
  H15      1.0000 0.83530  0.78330  0.75750  Biso   1.000  H
  C28      1.0000 0.76440  0.74050  0.84380  Biso   1.000  C
  H16      1.0000 0.69980  0.78710  0.83040  Biso   1.000  H
  C29      1.0000 0.80270  0.65840  0.91100  Biso   1.000  C
  C30      1.0000 0.24700  0.35940  0.03000  Biso   1.000  C
  C31      1.0000 0.02630  0.68680  0.75200  Biso   1.000  C
  C32      1.0000 0.96780  0.65530  0.67290  Biso   1.000  C
  H17      1.0000 0.91190  0.59770  0.66230  Biso   1.000  H
  C33      1.0000 0.98990  0.70720  0.60860  Biso   1.000  C
  H18      1.0000 0.95020  0.68360  0.55400  Biso   1.000  H
  N7       1.0000 0.06690  0.79060  0.62230  Biso   1.000  N
  O3       1.0000 0.09110  0.83740  0.56060  Biso   1.000  O
  C34      1.0000 0.12200  0.82700  0.69840  Biso   1.000  C
  H19      1.0000 0.17470  0.88760  0.70730  Biso   1.000  H
  C35      1.0000 0.10240  0.77660  0.76420  Biso   1.000  C
  H20      1.0000 0.14120  0.80340  0.81810  Biso   1.000  H
  C36      1.0000 0.35430  0.30130  0.04220  Biso   1.000  C
  C37      1.0000 0.44740  0.33040  0.10740  Biso   1.000  C
  H21      1.0000 0.44250  0.38560  0.14650  Biso   1.000  H
  C38      1.0000 0.54840  0.27900  0.11590  Biso   1.000  C
  H22      1.0000 0.61210  0.29890  0.16120  Biso   1.000  H
  N8       1.0000 0.55640  0.20250  0.06140  Biso   1.000  N
  O4       1.0000 0.65420  0.16120  0.06710  Biso   1.000  O
  C39      1.0000 0.46570  0.16890  0.99990  Biso   1.000  C
  H23      1.0000 0.47250  0.11090  0.96320  Biso   1.000  H
  C40      1.0000 0.36400  0.21500  0.98830  Biso   1.000  C
  H24      1.0000 0.30090  0.18910  0.94460  Biso   1.000  H
  Zn1      1.0000 0.00000  0.50000  0.00000  Biso   1.000  Zn
  N9       1.0000 0.10840  0.00950  0.43680  Biso   1.000  N
  N10      1.0000 0.89800  0.89380  0.40970  Biso   1.000  N
  C41      1.0000 0.20570  0.07050  0.45900  Biso   1.000  C
  C42      1.0000 0.25890  0.05120  0.39940  Biso   1.000  C
  H25      1.0000 0.32710  0.08340  0.40020  Biso   1.000  H
  C43      1.0000 0.19290  0.97840  0.34170  Biso   1.000  C
  H26      1.0000 0.20610  0.95000  0.29470  Biso   1.000  H
  C44      1.0000 0.09870  0.95240  0.36590  Biso   1.000  C
  C45      1.0000 0.01360  0.87290  0.32470  Biso   1.000  C
  C46      1.0000 0.92190  0.84660  0.34590  Biso   1.000  C
  C47      1.0000 0.83800  0.76180  0.30390  Biso   1.000  C
  H27      1.0000 0.83530  0.71670  0.25750  Biso   1.000  H
  C48      1.0000 0.76440  0.75950  0.34380  Biso   1.000  C
  H28      1.0000 0.69980  0.71290  0.33040  Biso   1.000  H
  C49      1.0000 0.80270  0.84160  0.41100  Biso   1.000  C
  C50      1.0000 0.24700  0.14060  0.53000  Biso   1.000  C
  C51      1.0000 0.02630  0.81320  0.25200  Biso   1.000  C
  C52      1.0000 0.96780  0.84470  0.17290  Biso   1.000  C
  H29      1.0000 0.91190  0.90230  0.16230  Biso   1.000  H
  C53      1.0000 0.98990  0.79280  0.10860  Biso   1.000  C
  H30      1.0000 0.95020  0.81640  0.05400  Biso   1.000  H
  N11      1.0000 0.06690  0.70940  0.12230  Biso   1.000  N
  O5       1.0000 0.09110  0.66260  0.06060  Biso   1.000  O
  C54      1.0000 0.12200  0.67300  0.19840  Biso   1.000  C
  H31      1.0000 0.17470  0.61240  0.20730  Biso   1.000  H
  C55      1.0000 0.10240  0.72340  0.26420  Biso   1.000  C
  H32      1.0000 0.14120  0.69660  0.31810  Biso   1.000  H
  C56      1.0000 0.35430  0.19870  0.54220  Biso   1.000  C
  C57      1.0000 0.44740  0.16960  0.60740  Biso   1.000  C
  H33      1.0000 0.44250  0.11440  0.64650  Biso   1.000  H
  C58      1.0000 0.54840  0.22100  0.61590  Biso   1.000  C
  H34      1.0000 0.61210  0.20110  0.66120  Biso   1.000  H
  N12      1.0000 0.55640  0.29750  0.56140  Biso   1.000  N
  O6       1.0000 0.65420  0.33880  0.56710  Biso   1.000  O
  C59      1.0000 0.46570  0.33110  0.49990  Biso   1.000  C
  H35      1.0000 0.47250  0.38910  0.46320  Biso   1.000  H
  C60      1.0000 0.36400  0.28500  0.48830  Biso   1.000  C
  H36      1.0000 0.30090  0.31090  0.44460  Biso   1.000  H
  N13      1.0000 0.89160  0.99050  0.56320  Biso   1.000  N
  N14      1.0000 0.10200  0.10620  0.59030  Biso   1.000  N
  C61      1.0000 0.79430  0.92950  0.54100  Biso   1.000  C
  C62      1.0000 0.74110  0.94880  0.60060  Biso   1.000  C
  H37      1.0000 0.67290  0.91660  0.59980  Biso   1.000  H
  C63      1.0000 0.80710  0.02160  0.65830  Biso   1.000  C
  H38      1.0000 0.79390  0.05000  0.70530  Biso   1.000  H
  C64      1.0000 0.90130  0.04760  0.63410  Biso   1.000  C
  C65      1.0000 0.98640  0.12710  0.67530  Biso   1.000  C
  C66      1.0000 0.07810  0.15340  0.65410  Biso   1.000  C
  C67      1.0000 0.16200  0.23820  0.69610  Biso   1.000  C
  H39      1.0000 0.16470  0.28330  0.74250  Biso   1.000  H
  C68      1.0000 0.23560  0.24050  0.65620  Biso   1.000  C
  H40      1.0000 0.30020  0.28710  0.66960  Biso   1.000  H
  C69      1.0000 0.19730  0.15840  0.58900  Biso   1.000  C
  C70      1.0000 0.75300  0.85940  0.47000  Biso   1.000  C
  C71      1.0000 0.97370  0.18680  0.74800  Biso   1.000  C
  C72      1.0000 0.03220  0.15530  0.82710  Biso   1.000  C
  H41      1.0000 0.08810  0.09770  0.83770  Biso   1.000  H
  C73      1.0000 0.01010  0.20720  0.89140  Biso   1.000  C
  H42      1.0000 0.04980  0.18360  0.94600  Biso   1.000  H
  N15      1.0000 0.93310  0.29060  0.87770  Biso   1.000  N
  O7       1.0000 0.90890  0.33740  0.93940  Biso   1.000  O
  C74      1.0000 0.87800  0.32700  0.80160  Biso   1.000  C
  H43      1.0000 0.82530  0.38760  0.79270  Biso   1.000  H
  C75      1.0000 0.89760  0.27660  0.73580  Biso   1.000  C
  H44      1.0000 0.85880  0.30340  0.68190  Biso   1.000  H
  C76      1.0000 0.64570  0.80130  0.45780  Biso   1.000  C
  C77      1.0000 0.55260  0.83040  0.39260  Biso   1.000  C
  H45      1.0000 0.55750  0.88560  0.35350  Biso   1.000  H
  C78      1.0000 0.45160  0.77900  0.38410  Biso   1.000  C
  H46      1.0000 0.38790  0.79890  0.33880  Biso   1.000  H
  N16      1.0000 0.44360  0.70250  0.43860  Biso   1.000  N
  O8       1.0000 0.34580  0.66120  0.43290  Biso   1.000  O
  C79      1.0000 0.53430  0.66890  0.50010  Biso   1.000  C
  H47      1.0000 0.52750  0.61090  0.53680  Biso   1.000  H
  C80      1.0000 0.63600  0.71500  0.51170  Biso   1.000  C
  H48      1.0000 0.69910  0.68910  0.55540  Biso   1.000  H
  Zn2      1.0000 0.00000  0.00000  0.50000  Biso   1.000  Zn
