data_image0
_cell_length_a       7.671
_cell_length_b       6.82
_cell_length_c       25.658
_cell_angle_alpha    90
_cell_angle_beta     94.011
_cell_angle_gamma    90

_symmetry_space_group_name_H-M    "P 1"
_symmetry_int_tables_number       1

loop_
  _symmetry_equiv_pos_as_xyz
  'x, y, z'

loop_
  _atom_site_label
  _atom_site_occupancy
  _atom_site_fract_x
  _atom_site_fract_y
  _atom_site_fract_z
  _atom_site_thermal_displace_type
  _atom_site_B_iso_or_equiv
  _atom_site_type_symbol
  Eu1      1.0000 0.44730  0.53412  0.73131  Biso   1.000  Eu
  O1       1.0000 0.35000  0.64500  0.80800  Biso   1.000  O
  O2       1.0000 0.53540  0.65100  0.64970  Biso   1.000  O
  O3       1.0000 0.42870  0.45800  0.88140  Biso   1.000  O
  H1       1.0000 0.46390  0.38130  0.86000  Biso   1.000  H
  C1       1.0000 0.59900  0.73700  0.51750  Biso   1.000  C
  H2       1.0000 0.54170  0.63020  0.50170  Biso   1.000  H
  C2       1.0000 0.27100  0.77200  0.89000  Biso   1.000  C
  N1       1.0000 0.15200  0.07800  0.89360  Biso   1.000  N
  C3       1.0000 0.70300  0.90800  0.59200  Biso   1.000  C
  H3       1.0000 0.72880  0.90840  0.62800  Biso   1.000  H
  C4       1.0000 0.73300  0.07380  0.50770  Biso   1.000  C
  C5       1.0000 0.34700  0.61000  0.85620  Biso   1.000  C
  N2       1.0000 0.74600  0.07300  0.56380  Biso   1.000  N
  C6       1.0000 0.23400  0.90700  0.97110  Biso   1.000  C
  C7       1.0000 0.78300  0.22000  0.42620  Biso   1.000  C
  H4       1.0000 0.82040  0.32130  0.40530  Biso   1.000  H
  C8       1.0000 0.10800  0.23500  0.97410  Biso   1.000  C
  H5       1.0000 0.05800  0.34270  0.95640  Biso   1.000  H
  C9       1.0000 0.21600  0.94300  0.86900  Biso   1.000  C
  H6       1.0000 0.22740  0.96190  0.83350  Biso   1.000  H
  C10      1.0000 0.66600  0.90900  0.48330  Biso   1.000  C
  C11      1.0000 0.78100  0.23300  0.47920  Biso   1.000  C
  H7       1.0000 0.81180  0.35030  0.49610  Biso   1.000  H
  C12      1.0000 0.25100  0.92700  0.03030  Biso   1.000  C
  H8       1.0000 0.29840  0.82240  0.04980  Biso   1.000  H
  C13      1.0000 0.12900  0.24100  0.02730  Biso   1.000  C
  H9       1.0000 0.09450  0.35310  0.04450  Biso   1.000  H
  C14      1.0000 0.15700  0.07600  0.94560  Biso   1.000  C
  C15      1.0000 0.20000  0.08900  0.05640  Biso   1.000  C
  H10      1.0000 0.21200  0.09530  0.09260  Biso   1.000  H
  C16      1.0000 0.62400  0.74700  0.56970  Biso   1.000  C
  C17      1.0000 0.65900  0.88600  0.43090  Biso   1.000  C
  H11      1.0000 0.61430  0.77520  0.41350  Biso   1.000  H
  C18      1.0000 0.28200  0.75800  0.94530  Biso   1.000  C
  H12      1.0000 0.32220  0.64470  0.96220  Biso   1.000  H
  K1       1.0000 0.93820  0.41410  0.84550  Biso   1.000  K
  O4       1.0000 0.51700  0.44100  0.58490  Biso   1.000  O
  C19      1.0000 0.72600  0.04400  0.40680  Biso   1.000  C
  H13      1.0000 0.73340  0.02910  0.37100  Biso   1.000  H
  C20      1.0000 0.54500  0.59900  0.60410  Biso   1.000  C
  O5       1.0000 0.20200  0.34300  0.75600  Biso   1.000  O
  H14      1.0000 0.17600  0.37710  0.79100  Biso   1.000  H
  H15      1.0000 0.23210  0.20660  0.75470  Biso   1.000  H
  O6       1.0000 0.35060  0.27200  0.66710  Biso   1.000  O
  H16      1.0000 0.24910  0.31590  0.64630  Biso   1.000  H
  Eu2      1.0000 0.44730  0.46588  0.23131  Biso   1.000  Eu
  O7       1.0000 0.35000  0.35500  0.30800  Biso   1.000  O
  O8       1.0000 0.53540  0.34900  0.14970  Biso   1.000  O
  O9       1.0000 0.42870  0.54200  0.38140  Biso   1.000  O
  H17      1.0000 0.46390  0.61870  0.36000  Biso   1.000  H
  C21      1.0000 0.59900  0.26300  0.01750  Biso   1.000  C
  H18      1.0000 0.54170  0.36980  0.00170  Biso   1.000  H
  C22      1.0000 0.27100  0.22800  0.39000  Biso   1.000  C
  N3       1.0000 0.15200  0.92200  0.39360  Biso   1.000  N
  C23      1.0000 0.70300  0.09200  0.09200  Biso   1.000  C
  H19      1.0000 0.72880  0.09160  0.12800  Biso   1.000  H
  C24      1.0000 0.73300  0.92620  0.00770  Biso   1.000  C
  C25      1.0000 0.34700  0.39000  0.35620  Biso   1.000  C
  N4       1.0000 0.74600  0.92700  0.06380  Biso   1.000  N
  C26      1.0000 0.23400  0.09300  0.47110  Biso   1.000  C
  C27      1.0000 0.78300  0.78000  0.92620  Biso   1.000  C
  H20      1.0000 0.82040  0.67870  0.90530  Biso   1.000  H
  C28      1.0000 0.10800  0.76500  0.47410  Biso   1.000  C
  H21      1.0000 0.05800  0.65730  0.45640  Biso   1.000  H
  C29      1.0000 0.21600  0.05700  0.36900  Biso   1.000  C
  H22      1.0000 0.22740  0.03810  0.33350  Biso   1.000  H
  C30      1.0000 0.66600  0.09100  0.98330  Biso   1.000  C
  C31      1.0000 0.78100  0.76700  0.97920  Biso   1.000  C
  H23      1.0000 0.81180  0.64970  0.99610  Biso   1.000  H
  C32      1.0000 0.25100  0.07300  0.53030  Biso   1.000  C
  H24      1.0000 0.29840  0.17760  0.54980  Biso   1.000  H
  C33      1.0000 0.12900  0.75900  0.52730  Biso   1.000  C
  H25      1.0000 0.09450  0.64690  0.54450  Biso   1.000  H
  C34      1.0000 0.15700  0.92400  0.44560  Biso   1.000  C
  C35      1.0000 0.20000  0.91100  0.55640  Biso   1.000  C
  H26      1.0000 0.21200  0.90470  0.59260  Biso   1.000  H
  C36      1.0000 0.62400  0.25300  0.06970  Biso   1.000  C
  C37      1.0000 0.65900  0.11400  0.93090  Biso   1.000  C
  H27      1.0000 0.61430  0.22480  0.91350  Biso   1.000  H
  C38      1.0000 0.28200  0.24200  0.44530  Biso   1.000  C
  H28      1.0000 0.32220  0.35530  0.46220  Biso   1.000  H
  K2       1.0000 0.93820  0.58590  0.34550  Biso   1.000  K
  O10      1.0000 0.51700  0.55900  0.08490  Biso   1.000  O
  C39      1.0000 0.72600  0.95600  0.90680  Biso   1.000  C
  H29      1.0000 0.73340  0.97090  0.87100  Biso   1.000  H
  C40      1.0000 0.54500  0.40100  0.10410  Biso   1.000  C
  O11      1.0000 0.20200  0.65700  0.25600  Biso   1.000  O
  H30      1.0000 0.17600  0.62290  0.29100  Biso   1.000  H
  H31      1.0000 0.23210  0.79340  0.25470  Biso   1.000  H
  O12      1.0000 0.35060  0.72800  0.16710  Biso   1.000  O
  H32      1.0000 0.24910  0.68410  0.14630  Biso   1.000  H
