data_image0
_cell_length_a       21.46
_cell_length_b       24.199
_cell_length_c       8.449
_cell_angle_alpha    90
_cell_angle_beta     90
_cell_angle_gamma    90

_symmetry_space_group_name_H-M    "P 1"
_symmetry_int_tables_number       1

loop_
  _symmetry_equiv_pos_as_xyz
  'x, y, z'

loop_
  _atom_site_label
  _atom_site_occupancy
  _atom_site_fract_x
  _atom_site_fract_y
  _atom_site_fract_z
  _atom_site_thermal_displace_type
  _atom_site_B_iso_or_equiv
  _atom_site_type_symbol
  Cu1      1.0000 0.91439  0.51842  0.33280  Biso   1.000  Cu
  O1       1.0000 0.79020  0.32360  0.75770  Biso   1.000  O
  N1       1.0000 0.89450  0.44530  0.40730  Biso   1.000  N
  N2       1.0000 0.86420  0.33960  0.50520  Biso   1.000  N
  N3       1.0000 0.78770  0.41410  0.82100  Biso   1.000  N
  C1       1.0000 0.84500  0.38460  0.58400  Biso   1.000  C
  C2       1.0000 0.86120  0.43690  0.53600  Biso   1.000  C
  C3       1.0000 0.80430  0.37130  0.73200  Biso   1.000  C
  Cu2      1.0000 0.91439  0.01842  0.83280  Biso   1.000  Cu
  O2       1.0000 0.79020  0.82360  0.25770  Biso   1.000  O
  N4       1.0000 0.89450  0.94530  0.90730  Biso   1.000  N
  N5       1.0000 0.86420  0.83960  0.00520  Biso   1.000  N
  N6       1.0000 0.78770  0.91410  0.32100  Biso   1.000  N
  C4       1.0000 0.84500  0.88460  0.08400  Biso   1.000  C
  C5       1.0000 0.86120  0.93690  0.03600  Biso   1.000  C
  C6       1.0000 0.80430  0.87130  0.23200  Biso   1.000  C
  C7       1.0000 0.83710  0.65090  0.07400  Biso   1.000  C
  C8       1.0000 0.85200  0.59830  0.13000  Biso   1.000  C
  H1       1.0000 0.90160  0.71810  0.34890  Biso   1.000  H
  H2       1.0000 0.81400  0.65570  0.97360  Biso   1.000  H
  H3       1.0000 0.83570  0.56620  0.07390  Biso   1.000  H
  C9       1.0000 0.83710  0.15090  0.57400  Biso   1.000  C
  C10      1.0000 0.85200  0.09830  0.63000  Biso   1.000  C
  H4       1.0000 0.90160  0.21810  0.84890  Biso   1.000  H
  H5       1.0000 0.81400  0.15570  0.47360  Biso   1.000  H
  H6       1.0000 0.83570  0.06620  0.57390  Biso   1.000  H
  C11      1.0000 0.91290  0.90090  0.82400  Biso   1.000  C
  C12      1.0000 0.89800  0.84830  0.88000  Biso   1.000  C
  H7       1.0000 0.84840  0.96810  0.09890  Biso   1.000  H
  H8       1.0000 0.93600  0.90570  0.72360  Biso   1.000  H
  H9       1.0000 0.91430  0.81620  0.82390  Biso   1.000  H
  C13      1.0000 0.91290  0.40090  0.32400  Biso   1.000  C
  C14      1.0000 0.89800  0.34830  0.38000  Biso   1.000  C
  H10      1.0000 0.84840  0.46810  0.59890  Biso   1.000  H
  H11      1.0000 0.93600  0.40570  0.22360  Biso   1.000  H
  H12      1.0000 0.91430  0.31620  0.32390  Biso   1.000  H
  Cu3      1.0000 0.83561  0.76842  0.08280  Biso   1.000  Cu
  O3       1.0000 0.95980  0.57360  0.50770  Biso   1.000  O
  N7       1.0000 0.85550  0.69530  0.15730  Biso   1.000  N
  N8       1.0000 0.88580  0.58960  0.25520  Biso   1.000  N
  N9       1.0000 0.96230  0.66410  0.57100  Biso   1.000  N
  C15      1.0000 0.90500  0.63460  0.33400  Biso   1.000  C
  C16      1.0000 0.88880  0.68690  0.28600  Biso   1.000  C
  C17      1.0000 0.94570  0.62130  0.48200  Biso   1.000  C
  Cu4      1.0000 0.83561  0.26842  0.58280  Biso   1.000  Cu
  O4       1.0000 0.95980  0.07360  0.00770  Biso   1.000  O
  N10      1.0000 0.85550  0.19530  0.65730  Biso   1.000  N
  N11      1.0000 0.88580  0.08960  0.75520  Biso   1.000  N
  N12      1.0000 0.96230  0.16410  0.07100  Biso   1.000  N
  C18      1.0000 0.90500  0.13460  0.83400  Biso   1.000  C
  C19      1.0000 0.88880  0.18690  0.78600  Biso   1.000  C
  C20      1.0000 0.94570  0.12130  0.98200  Biso   1.000  C
  C21      1.0000 0.66290  0.34910  0.57400  Biso   1.000  C
  C22      1.0000 0.64800  0.40170  0.63000  Biso   1.000  C
  H13      1.0000 0.59840  0.28190  0.84890  Biso   1.000  H
  H14      1.0000 0.68600  0.34430  0.47360  Biso   1.000  H
  H15      1.0000 0.66430  0.43380  0.57390  Biso   1.000  H
  C23      1.0000 0.66290  0.84910  0.07400  Biso   1.000  C
  C24      1.0000 0.64800  0.90170  0.13000  Biso   1.000  C
  H16      1.0000 0.59840  0.78190  0.34890  Biso   1.000  H
  H17      1.0000 0.68600  0.84430  0.97360  Biso   1.000  H
  H18      1.0000 0.66430  0.93380  0.07390  Biso   1.000  H
  Cu5      1.0000 0.58561  0.48158  0.83280  Biso   1.000  Cu
  O5       1.0000 0.70980  0.67640  0.25770  Biso   1.000  O
  N13      1.0000 0.60550  0.55470  0.90730  Biso   1.000  N
  N14      1.0000 0.63580  0.66040  0.00520  Biso   1.000  N
  N15      1.0000 0.71230  0.58590  0.32100  Biso   1.000  N
  C25      1.0000 0.65500  0.61540  0.08400  Biso   1.000  C
  C26      1.0000 0.63880  0.56310  0.03600  Biso   1.000  C
  C27      1.0000 0.69570  0.62870  0.23200  Biso   1.000  C
  Cu6      1.0000 0.58561  0.98158  0.33280  Biso   1.000  Cu
  O6       1.0000 0.70980  0.17640  0.75770  Biso   1.000  O
  N16      1.0000 0.60550  0.05470  0.40730  Biso   1.000  N
  N17      1.0000 0.63580  0.16040  0.50520  Biso   1.000  N
  N18      1.0000 0.71230  0.08590  0.82100  Biso   1.000  N
  C28      1.0000 0.65500  0.11540  0.58400  Biso   1.000  C
  C29      1.0000 0.63880  0.06310  0.53600  Biso   1.000  C
  C30      1.0000 0.69570  0.12870  0.73200  Biso   1.000  C
  Cu7      1.0000 0.66439  0.73158  0.08280  Biso   1.000  Cu
  O7       1.0000 0.54020  0.92640  0.50770  Biso   1.000  O
  N19      1.0000 0.64450  0.80470  0.15730  Biso   1.000  N
  N20      1.0000 0.61420  0.91040  0.25520  Biso   1.000  N
  N21      1.0000 0.53770  0.83590  0.57100  Biso   1.000  N
  C31      1.0000 0.59500  0.86540  0.33400  Biso   1.000  C
  C32      1.0000 0.61120  0.81310  0.28600  Biso   1.000  C
  C33      1.0000 0.55430  0.87870  0.48200  Biso   1.000  C
  Cu8      1.0000 0.66439  0.23158  0.58280  Biso   1.000  Cu
  O8       1.0000 0.54020  0.42640  0.00770  Biso   1.000  O
  N22      1.0000 0.64450  0.30470  0.65730  Biso   1.000  N
  N23      1.0000 0.61420  0.41040  0.75520  Biso   1.000  N
  N24      1.0000 0.53770  0.33590  0.07100  Biso   1.000  N
  C34      1.0000 0.59500  0.36540  0.83400  Biso   1.000  C
  C35      1.0000 0.61120  0.31310  0.78600  Biso   1.000  C
  C36      1.0000 0.55430  0.37870  0.98200  Biso   1.000  C
  C37      1.0000 0.58710  0.59910  0.82400  Biso   1.000  C
  C38      1.0000 0.60200  0.65170  0.88000  Biso   1.000  C
  H19      1.0000 0.65160  0.53190  0.09890  Biso   1.000  H
  H20      1.0000 0.56400  0.59430  0.72360  Biso   1.000  H
  H21      1.0000 0.58570  0.68380  0.82390  Biso   1.000  H
  C39      1.0000 0.58710  0.09910  0.32400  Biso   1.000  C
  C40      1.0000 0.60200  0.15170  0.38000  Biso   1.000  C
  H22      1.0000 0.65160  0.03190  0.59890  Biso   1.000  H
  H23      1.0000 0.56400  0.09430  0.22360  Biso   1.000  H
  H24      1.0000 0.58570  0.18380  0.32390  Biso   1.000  H
  Cu9      1.0000 0.41439  0.51842  0.83280  Biso   1.000  Cu
  O9       1.0000 0.29020  0.32360  0.25770  Biso   1.000  O
  N25      1.0000 0.39450  0.44530  0.90730  Biso   1.000  N
  N26      1.0000 0.36420  0.33960  0.00520  Biso   1.000  N
  N27      1.0000 0.28770  0.41410  0.32100  Biso   1.000  N
  C41      1.0000 0.34500  0.38460  0.08400  Biso   1.000  C
  C42      1.0000 0.36120  0.43690  0.03600  Biso   1.000  C
  C43      1.0000 0.30430  0.37130  0.23200  Biso   1.000  C
  Cu10     1.0000 0.41439  0.01842  0.33280  Biso   1.000  Cu
  O10      1.0000 0.29020  0.82360  0.75770  Biso   1.000  O
  N28      1.0000 0.39450  0.94530  0.40730  Biso   1.000  N
  N29      1.0000 0.36420  0.83960  0.50520  Biso   1.000  N
  N30      1.0000 0.28770  0.91410  0.82100  Biso   1.000  N
  C44      1.0000 0.34500  0.88460  0.58400  Biso   1.000  C
  C45      1.0000 0.36120  0.93690  0.53600  Biso   1.000  C
  C46      1.0000 0.30430  0.87130  0.73200  Biso   1.000  C
  C47      1.0000 0.33710  0.65090  0.57400  Biso   1.000  C
  C48      1.0000 0.35200  0.59830  0.63000  Biso   1.000  C
  H25      1.0000 0.40160  0.71810  0.84890  Biso   1.000  H
  H26      1.0000 0.31400  0.65570  0.47360  Biso   1.000  H
  H27      1.0000 0.33570  0.56620  0.57390  Biso   1.000  H
  C49      1.0000 0.33710  0.15090  0.07400  Biso   1.000  C
  C50      1.0000 0.35200  0.09830  0.13000  Biso   1.000  C
  H28      1.0000 0.40160  0.21810  0.34890  Biso   1.000  H
  H29      1.0000 0.31400  0.15570  0.97360  Biso   1.000  H
  H30      1.0000 0.33570  0.06620  0.07390  Biso   1.000  H
  C51      1.0000 0.41290  0.90090  0.32400  Biso   1.000  C
  C52      1.0000 0.39800  0.84830  0.38000  Biso   1.000  C
  H31      1.0000 0.34840  0.96810  0.59890  Biso   1.000  H
  H32      1.0000 0.43600  0.90570  0.22360  Biso   1.000  H
  H33      1.0000 0.41430  0.81620  0.32390  Biso   1.000  H
  C53      1.0000 0.41290  0.40090  0.82400  Biso   1.000  C
  C54      1.0000 0.39800  0.34830  0.88000  Biso   1.000  C
  H34      1.0000 0.34840  0.46810  0.09890  Biso   1.000  H
  H35      1.0000 0.43600  0.40570  0.72360  Biso   1.000  H
  H36      1.0000 0.41430  0.31620  0.82390  Biso   1.000  H
  Cu11     1.0000 0.33561  0.76842  0.58280  Biso   1.000  Cu
  O11      1.0000 0.45980  0.57360  0.00770  Biso   1.000  O
  N31      1.0000 0.35550  0.69530  0.65730  Biso   1.000  N
  N32      1.0000 0.38580  0.58960  0.75520  Biso   1.000  N
  N33      1.0000 0.46230  0.66410  0.07100  Biso   1.000  N
  C55      1.0000 0.40500  0.63460  0.83400  Biso   1.000  C
  C56      1.0000 0.38880  0.68690  0.78600  Biso   1.000  C
  C57      1.0000 0.44570  0.62130  0.98200  Biso   1.000  C
  Cu12     1.0000 0.33561  0.26842  0.08280  Biso   1.000  Cu
  O12      1.0000 0.45980  0.07360  0.50770  Biso   1.000  O
  N34      1.0000 0.35550  0.19530  0.15730  Biso   1.000  N
  N35      1.0000 0.38580  0.08960  0.25520  Biso   1.000  N
  N36      1.0000 0.46230  0.16410  0.57100  Biso   1.000  N
  C58      1.0000 0.40500  0.13460  0.33400  Biso   1.000  C
  C59      1.0000 0.38880  0.18690  0.28600  Biso   1.000  C
  C60      1.0000 0.44570  0.12130  0.48200  Biso   1.000  C
  C61      1.0000 0.16290  0.34910  0.07400  Biso   1.000  C
  C62      1.0000 0.14800  0.40170  0.13000  Biso   1.000  C
  H37      1.0000 0.09840  0.28190  0.34890  Biso   1.000  H
  H38      1.0000 0.18600  0.34430  0.97360  Biso   1.000  H
  H39      1.0000 0.16430  0.43380  0.07390  Biso   1.000  H
  C63      1.0000 0.16290  0.84910  0.57400  Biso   1.000  C
  C64      1.0000 0.14800  0.90170  0.63000  Biso   1.000  C
  H40      1.0000 0.09840  0.78190  0.84890  Biso   1.000  H
  H41      1.0000 0.18600  0.84430  0.47360  Biso   1.000  H
  H42      1.0000 0.16430  0.93380  0.57390  Biso   1.000  H
  Cu13     1.0000 0.08561  0.48158  0.33280  Biso   1.000  Cu
  O13      1.0000 0.20980  0.67640  0.75770  Biso   1.000  O
  N37      1.0000 0.10550  0.55470  0.40730  Biso   1.000  N
  N38      1.0000 0.13580  0.66040  0.50520  Biso   1.000  N
  N39      1.0000 0.21230  0.58590  0.82100  Biso   1.000  N
  C65      1.0000 0.15500  0.61540  0.58400  Biso   1.000  C
  C66      1.0000 0.13880  0.56310  0.53600  Biso   1.000  C
  C67      1.0000 0.19570  0.62870  0.73200  Biso   1.000  C
  Cu14     1.0000 0.08561  0.98158  0.83280  Biso   1.000  Cu
  O14      1.0000 0.20980  0.17640  0.25770  Biso   1.000  O
  N40      1.0000 0.10550  0.05470  0.90730  Biso   1.000  N
  N41      1.0000 0.13580  0.16040  0.00520  Biso   1.000  N
  N42      1.0000 0.21230  0.08590  0.32100  Biso   1.000  N
  C68      1.0000 0.15500  0.11540  0.08400  Biso   1.000  C
  C69      1.0000 0.13880  0.06310  0.03600  Biso   1.000  C
  C70      1.0000 0.19570  0.12870  0.23200  Biso   1.000  C
  Cu15     1.0000 0.16439  0.73158  0.58280  Biso   1.000  Cu
  O15      1.0000 0.04020  0.92640  0.00770  Biso   1.000  O
  N43      1.0000 0.14450  0.80470  0.65730  Biso   1.000  N
  N44      1.0000 0.11420  0.91040  0.75520  Biso   1.000  N
  N45      1.0000 0.03770  0.83590  0.07100  Biso   1.000  N
  C71      1.0000 0.09500  0.86540  0.83400  Biso   1.000  C
  C72      1.0000 0.11120  0.81310  0.78600  Biso   1.000  C
  C73      1.0000 0.05430  0.87870  0.98200  Biso   1.000  C
  Cu16     1.0000 0.16439  0.23158  0.08280  Biso   1.000  Cu
  O16      1.0000 0.04020  0.42640  0.50770  Biso   1.000  O
  N46      1.0000 0.14450  0.30470  0.15730  Biso   1.000  N
  N47      1.0000 0.11420  0.41040  0.25520  Biso   1.000  N
  N48      1.0000 0.03770  0.33590  0.57100  Biso   1.000  N
  C74      1.0000 0.09500  0.36540  0.33400  Biso   1.000  C
  C75      1.0000 0.11120  0.31310  0.28600  Biso   1.000  C
  C76      1.0000 0.05430  0.37870  0.48200  Biso   1.000  C
  C77      1.0000 0.08710  0.59910  0.32400  Biso   1.000  C
  C78      1.0000 0.10200  0.65170  0.38000  Biso   1.000  C
  H43      1.0000 0.15160  0.53190  0.59890  Biso   1.000  H
  H44      1.0000 0.06400  0.59430  0.22360  Biso   1.000  H
  H45      1.0000 0.08570  0.68380  0.32390  Biso   1.000  H
  C79      1.0000 0.08710  0.09910  0.82400  Biso   1.000  C
  C80      1.0000 0.10200  0.15170  0.88000  Biso   1.000  C
  H46      1.0000 0.15160  0.03190  0.09890  Biso   1.000  H
  H47      1.0000 0.06400  0.09430  0.72360  Biso   1.000  H
  H48      1.0000 0.08570  0.18380  0.82390  Biso   1.000  H
