data_image0
_cell_length_a       8.2911
_cell_length_b       9.9884
_cell_length_c       10.8264
_cell_angle_alpha    91.984
_cell_angle_beta     97.495
_cell_angle_gamma    114.189

_symmetry_space_group_name_H-M    "P 1"
_symmetry_int_tables_number       1

loop_
  _symmetry_equiv_pos_as_xyz
  'x, y, z'

loop_
  _atom_site_label
  _atom_site_occupancy
  _atom_site_fract_x
  _atom_site_fract_y
  _atom_site_fract_z
  _atom_site_thermal_displace_type
  _atom_site_B_iso_or_equiv
  _atom_site_type_symbol
  Na1      1.0000 0.45213  0.29919  0.02644  Biso   1.000  Na
  B1       1.0000 0.62381  0.23187  0.83723  Biso   1.000  B
  H1       1.0000 0.47460  0.18850  0.82170  Biso   1.000  H
  H2       1.0000 0.67770  0.24910  0.93980  Biso   1.000  H
  H3       1.0000 0.66940  0.15770  0.78590  Biso   1.000  H
  B2       1.0000 0.63083  0.49857  0.84548  Biso   1.000  B
  H4       1.0000 0.48330  0.44920  0.83220  Biso   1.000  H
  H5       1.0000 0.67910  0.51650  0.95040  Biso   1.000  H
  H6       1.0000 0.68550  0.61070  0.80330  Biso   1.000  H
  N1       1.0000 0.69709  0.38870  0.78586  Biso   1.000  N
  H7       1.0000 0.65620  0.37110  0.70730  Biso   1.000  H
  C1       1.0000 0.89379  0.45287  0.79411  Biso   1.000  C
  H8       1.0000 0.93380  0.54610  0.75560  Biso   1.000  H
  H9       1.0000 0.92860  0.38400  0.75000  Biso   1.000  H
  H10      1.0000 0.94950  0.47120  0.88220  Biso   1.000  H
  O1       1.0000 0.16124  0.11445  0.97867  Biso   1.000  O
  C2       1.0000 0.99792  0.13340  0.97039  Biso   1.000  C
  H11      1.0000 0.93550  0.10860  0.88270  Biso   1.000  H
  H12      1.0000 0.02570  0.23780  0.99510  Biso   1.000  H
  C3       1.0000 0.12152  0.96271  0.94668  Biso   1.000  C
  H13      1.0000 0.23430  0.94940  0.95520  Biso   1.000  H
  H14      1.0000 0.06240  0.93350  0.85840  Biso   1.000  H
  Na2      1.0000 0.40846  0.00875  0.65099  Biso   1.000  Na
  O2       1.0000 0.11458  0.98482  0.60167  Biso   1.000  O
  C4       1.0000 0.97776  0.85876  0.52658  Biso   1.000  C
  H15      1.0000 0.01690  0.77760  0.52370  Biso   1.000  H
  H16      1.0000 0.86710  0.82470  0.56470  Biso   1.000  H
  C5       1.0000 0.06044  0.10389  0.60369  Biso   1.000  C
  H17      1.0000 0.95170  0.07550  0.64360  Biso   1.000  H
  H18      1.0000 0.15660  0.19160  0.65390  Biso   1.000  H
  Na3      1.0000 0.54787  0.70081  0.97356  Biso   1.000  Na
  B3       1.0000 0.37619  0.76813  0.16277  Biso   1.000  B
  H19      1.0000 0.52540  0.81150  0.17830  Biso   1.000  H
  H20      1.0000 0.32230  0.75090  0.06020  Biso   1.000  H
  H21      1.0000 0.33060  0.84230  0.21410  Biso   1.000  H
  B4       1.0000 0.36917  0.50143  0.15452  Biso   1.000  B
  H22      1.0000 0.51670  0.55080  0.16780  Biso   1.000  H
  H23      1.0000 0.32090  0.48350  0.04960  Biso   1.000  H
  H24      1.0000 0.31450  0.38930  0.19670  Biso   1.000  H
  N2       1.0000 0.30291  0.61130  0.21414  Biso   1.000  N
  H25      1.0000 0.34380  0.62890  0.29270  Biso   1.000  H
  C6       1.0000 0.10621  0.54713  0.20589  Biso   1.000  C
  H26      1.0000 0.06620  0.45390  0.24440  Biso   1.000  H
  H27      1.0000 0.07140  0.61600  0.25000  Biso   1.000  H
  H28      1.0000 0.05050  0.52880  0.11780  Biso   1.000  H
  O3       1.0000 0.83876  0.88555  0.02133  Biso   1.000  O
  C7       1.0000 0.00208  0.86660  0.02961  Biso   1.000  C
  H29      1.0000 0.06450  0.89140  0.11730  Biso   1.000  H
  H30      1.0000 0.97430  0.76220  0.00490  Biso   1.000  H
  C8       1.0000 0.87848  0.03729  0.05332  Biso   1.000  C
  H31      1.0000 0.76570  0.05060  0.04480  Biso   1.000  H
  H32      1.0000 0.93760  0.06650  0.14160  Biso   1.000  H
  Na4      1.0000 0.59154  0.99125  0.34901  Biso   1.000  Na
  O4       1.0000 0.88542  0.01518  0.39833  Biso   1.000  O
  C9       1.0000 0.02224  0.14124  0.47342  Biso   1.000  C
  H33      1.0000 0.98310  0.22240  0.47630  Biso   1.000  H
  H34      1.0000 0.13290  0.17530  0.43530  Biso   1.000  H
  C10      1.0000 0.93956  0.89611  0.39631  Biso   1.000  C
  H35      1.0000 0.04830  0.92450  0.35640  Biso   1.000  H
  H36      1.0000 0.84340  0.80840  0.34610  Biso   1.000  H
