data_image0
_cell_length_a       10.049
_cell_length_b       15.041
_cell_length_c       20.708
_cell_angle_alpha    101.561
_cell_angle_beta     93.894
_cell_angle_gamma    105.461

_symmetry_space_group_name_H-M    "P 1"
_symmetry_int_tables_number       1

loop_
  _symmetry_equiv_pos_as_xyz
  'x, y, z'

loop_
  _atom_site_label
  _atom_site_occupancy
  _atom_site_fract_x
  _atom_site_fract_y
  _atom_site_fract_z
  _atom_site_thermal_displace_type
  _atom_site_B_iso_or_equiv
  _atom_site_type_symbol
  Zn1      1.0000 0.27000  0.37349  0.32972  Biso   1.000  Zn
  Zn2      1.0000 0.19172  0.07718  0.33140  Biso   1.000  Zn
  O1       1.0000 0.45100  0.33710  0.33255  Biso   1.000  O
  O2       1.0000 0.36650  0.19380  0.35240  Biso   1.000  O
  O3       1.0000 0.01770  0.11920  0.33679  Biso   1.000  O
  O4       1.0000 0.10150  0.25840  0.30872  Biso   1.000  O
  N1       1.0000 0.27050  0.35930  0.22360  Biso   1.000  N
  N2       1.0000 0.26780  0.39580  0.43560  Biso   1.000  N
  N3       1.0000 0.19370  0.07480  0.22740  Biso   1.000  N
  N4       1.0000 0.21320  0.08780  0.43760  Biso   1.000  N
  C1       1.0000 0.46050  0.25680  0.33910  Biso   1.000  C
  C2       1.0000 0.60120  0.23890  0.33170  Biso   1.000  C
  C3       1.0000 0.71290  0.31210  0.32210  Biso   1.000  C
  H1       1.0000 0.69920  0.37090  0.31780  Biso   1.000  H
  C4       1.0000 0.61810  0.15150  0.33340  Biso   1.000  C
  H2       1.0000 0.54000  0.10060  0.33550  Biso   1.000  H
  C5       1.0000 0.74790  0.13780  0.33200  Biso   1.000  C
  H3       1.0000 0.75950  0.07790  0.33470  Biso   1.000  H
  C6       1.0000 0.84380  0.29770  0.31880  Biso   1.000  C
  H4       1.0000 0.91940  0.34640  0.31130  Biso   1.000  H
  C7       1.0000 0.86440  0.21210  0.32650  Biso   1.000  C
  C8       1.0000 0.00570  0.19700  0.32470  Biso   1.000  C
  C9       1.0000 0.39130  0.38270  0.19800  Biso   1.000  C
  H5       1.0000 0.47530  0.39330  0.22620  Biso   1.000  H
  C10      1.0000 0.15280  0.34550  0.18370  Biso   1.000  C
  H6       1.0000 0.06680  0.33090  0.20130  Biso   1.000  H
  C11      1.0000 0.15080  0.35180  0.11650  Biso   1.000  C
  H7       1.0000 0.06550  0.34120  0.08930  Biso   1.000  H
  C12      1.0000 0.40140  0.39210  0.13480  Biso   1.000  C
  H8       1.0000 0.48950  0.41040  0.11950  Biso   1.000  H
  C13      1.0000 0.27550  0.37370  0.09170  Biso   1.000  C
  C14      1.0000 0.28000  0.38590  0.02390  Biso   1.000  C
  C15      1.0000 0.28560  0.39730  0.96790  Biso   1.000  C
  C16      1.0000 0.28430  0.40650  0.90020  Biso   1.000  C
  C17      1.0000 0.37100  0.37070  0.86180  Biso   1.000  C
  H9       1.0000 0.43300  0.34160  0.88010  Biso   1.000  H
  C18      1.0000 0.20330  0.45550  0.87620  Biso   1.000  C
  H10      1.0000 0.14860  0.48390  0.90470  Biso   1.000  H
  C19      1.0000 0.20000  0.46420  0.81090  Biso   1.000  C
  H11      1.0000 0.14190  0.49730  0.79440  Biso   1.000  H
  C20      1.0000 0.36800  0.37700  0.79520  Biso   1.000  C
  H12      1.0000 0.42440  0.34910  0.76740  Biso   1.000  H
  C21      1.0000 0.28260  0.42420  0.76970  Biso   1.000  C
  C22      1.0000 0.28140  0.42870  0.69960  Biso   1.000  C
  C23      1.0000 0.28120  0.42830  0.64230  Biso   1.000  C
  C24      1.0000 0.27840  0.42180  0.57400  Biso   1.000  C
  C25      1.0000 0.39720  0.42480  0.54240  Biso   1.000  C
  H13      1.0000 0.48430  0.43570  0.56810  Biso   1.000  H
  C26      1.0000 0.15400  0.40520  0.52900  Biso   1.000  C
  H14      1.0000 0.06910  0.40440  0.54680  Biso   1.000  H
  C27      1.0000 0.15350  0.39000  0.45970  Biso   1.000  C
  H15      1.0000 0.06880  0.37560  0.43120  Biso   1.000  H
  C28      1.0000 0.38960  0.41150  0.47120  Biso   1.000  C
  H16      1.0000 0.47110  0.41410  0.45000  Biso   1.000  H
  C29      1.0000 0.08650  0.08260  0.18890  Biso   1.000  C
  H17      1.0000 0.00040  0.07920  0.20600  Biso   1.000  H
  C30      1.0000 0.31030  0.07200  0.19990  Biso   1.000  C
  H18      1.0000 0.38540  0.06260  0.22540  Biso   1.000  H
  C31      1.0000 0.32480  0.08240  0.13480  Biso   1.000  C
  H19      1.0000 0.40760  0.07800  0.11650  Biso   1.000  H
  C32      1.0000 0.09760  0.09530  0.12500  Biso   1.000  C
  H20      1.0000 0.02040  0.10180  0.09920  Biso   1.000  H
  C33      1.0000 0.22240  0.09850  0.09850  Biso   1.000  C
  C34      1.0000 0.23650  0.11260  0.03120  Biso   1.000  C
  C35      1.0000 0.24880  0.12440  0.97790  Biso   1.000  C
  C36      1.0000 0.25780  0.12930  0.91050  Biso   1.000  C
  C37      1.0000 0.37460  0.11730  0.87790  Biso   1.000  C
  H21      1.0000 0.45300  0.11040  0.90260  Biso   1.000  H
  C38      1.0000 0.14330  0.13870  0.87120  Biso   1.000  C
  H22      1.0000 0.06320  0.14490  0.89150  Biso   1.000  H
  C39      1.0000 0.14380  0.13940  0.80580  Biso   1.000  C
  H23      1.0000 0.06660  0.14780  0.78110  Biso   1.000  H
  C40      1.0000 0.37520  0.11570  0.81030  Biso   1.000  C
  H24      1.0000 0.45280  0.10670  0.78880  Biso   1.000  H
  C41      1.0000 0.26210  0.12730  0.77490  Biso   1.000  C
  C42      1.0000 0.26010  0.12620  0.70420  Biso   1.000  C
  C43      1.0000 0.25060  0.11930  0.64620  Biso   1.000  C
  C44      1.0000 0.24020  0.10980  0.57710  Biso   1.000  C
  C45      1.0000 0.35610  0.11280  0.53780  Biso   1.000  C
  H25      1.0000 0.44710  0.12260  0.55940  Biso   1.000  H
  C46      1.0000 0.11080  0.09120  0.53660  Biso   1.000  C
  H26      1.0000 0.02790  0.08250  0.55710  Biso   1.000  H
  C47      1.0000 0.10100  0.08540  0.46990  Biso   1.000  C
  H27      1.0000 0.01390  0.07950  0.44590  Biso   1.000  H
  C48      1.0000 0.33520  0.10150  0.47060  Biso   1.000  C
  H28      1.0000 0.41290  0.10370  0.44670  Biso   1.000  H
  C49      1.0000 0.31750  0.35250  0.54120  Biso   1.000  C
  C50      1.0000 0.23340  0.48240  0.54240  Biso   1.000  C
  C51      1.0000 0.22780  0.46590  0.47310  Biso   1.000  C
  C52      1.0000 0.30940  0.34050  0.47060  Biso   1.000  C
  C53      1.0000 0.27550  0.03780  0.53710  Biso   1.000  C
  C54      1.0000 0.18970  0.17190  0.54860  Biso   1.000  C
  C55      1.0000 0.17980  0.15570  0.47970  Biso   1.000  C
  C56      1.0000 0.25970  0.02720  0.46980  Biso   1.000  C
  H29      1.0000 0.35020  0.31120  0.56320  Biso   1.000  H
  H30      1.0000 0.20680  0.53410  0.56690  Biso   1.000  H
  H31      1.0000 0.19370  0.50660  0.45110  Biso   1.000  H
  H32      1.0000 0.33600  0.28860  0.44660  Biso   1.000  H
  H33      1.0000 0.31110  0.99510  0.55630  Biso   1.000  H
  H34      1.0000 0.16330  0.22250  0.57450  Biso   1.000  H
  H35      1.0000 0.14490  0.19840  0.46010  Biso   1.000  H
  H36      1.0000 0.28190  0.97510  0.44330  Biso   1.000  H
  Zn3      1.0000 0.73000  0.62651  0.67028  Biso   1.000  Zn
  Zn4      1.0000 0.80828  0.92282  0.66860  Biso   1.000  Zn
  O5       1.0000 0.54900  0.66290  0.66745  Biso   1.000  O
  O6       1.0000 0.63350  0.80620  0.64760  Biso   1.000  O
  O7       1.0000 0.98230  0.88080  0.66321  Biso   1.000  O
  O8       1.0000 0.89850  0.74160  0.69128  Biso   1.000  O
  N5       1.0000 0.72950  0.64070  0.77640  Biso   1.000  N
  N6       1.0000 0.73220  0.60420  0.56440  Biso   1.000  N
  N7       1.0000 0.80630  0.92520  0.77260  Biso   1.000  N
  N8       1.0000 0.78680  0.91220  0.56240  Biso   1.000  N
  C57      1.0000 0.53950  0.74320  0.66090  Biso   1.000  C
  C58      1.0000 0.39880  0.76110  0.66830  Biso   1.000  C
  C59      1.0000 0.28710  0.68790  0.67790  Biso   1.000  C
  H37      1.0000 0.30080  0.62910  0.68220  Biso   1.000  H
  C60      1.0000 0.38190  0.84850  0.66660  Biso   1.000  C
  H38      1.0000 0.46000  0.89940  0.66450  Biso   1.000  H
  C61      1.0000 0.25210  0.86220  0.66800  Biso   1.000  C
  H39      1.0000 0.24050  0.92210  0.66530  Biso   1.000  H
  C62      1.0000 0.15620  0.70230  0.68120  Biso   1.000  C
  H40      1.0000 0.08060  0.65360  0.68870  Biso   1.000  H
  C63      1.0000 0.13560  0.78790  0.67350  Biso   1.000  C
  C64      1.0000 0.99430  0.80300  0.67530  Biso   1.000  C
  C65      1.0000 0.60870  0.61730  0.80200  Biso   1.000  C
  H41      1.0000 0.52470  0.60670  0.77380  Biso   1.000  H
  C66      1.0000 0.84720  0.65450  0.81630  Biso   1.000  C
  H42      1.0000 0.93320  0.66910  0.79870  Biso   1.000  H
  C67      1.0000 0.84920  0.64820  0.88350  Biso   1.000  C
  H43      1.0000 0.93450  0.65880  0.91070  Biso   1.000  H
  C68      1.0000 0.59860  0.60790  0.86520  Biso   1.000  C
  H44      1.0000 0.51050  0.58960  0.88050  Biso   1.000  H
  C69      1.0000 0.72450  0.62630  0.90830  Biso   1.000  C
  C70      1.0000 0.72000  0.61410  0.97610  Biso   1.000  C
  C71      1.0000 0.71440  0.60270  0.03210  Biso   1.000  C
  C72      1.0000 0.71570  0.59350  0.09980  Biso   1.000  C
  C73      1.0000 0.62900  0.62930  0.13820  Biso   1.000  C
  H45      1.0000 0.56700  0.65840  0.11990  Biso   1.000  H
  C74      1.0000 0.79670  0.54450  0.12380  Biso   1.000  C
  H46      1.0000 0.85140  0.51610  0.09530  Biso   1.000  H
  C75      1.0000 0.80000  0.53580  0.18910  Biso   1.000  C
  H47      1.0000 0.85810  0.50270  0.20560  Biso   1.000  H
  C76      1.0000 0.63200  0.62300  0.20480  Biso   1.000  C
  H48      1.0000 0.57560  0.65090  0.23260  Biso   1.000  H
  C77      1.0000 0.71740  0.57580  0.23030  Biso   1.000  C
  C78      1.0000 0.71860  0.57130  0.30040  Biso   1.000  C
  C79      1.0000 0.71880  0.57170  0.35770  Biso   1.000  C
  C80      1.0000 0.72160  0.57820  0.42600  Biso   1.000  C
  C81      1.0000 0.60280  0.57520  0.45760  Biso   1.000  C
  H49      1.0000 0.51570  0.56430  0.43190  Biso   1.000  H
  C82      1.0000 0.84600  0.59480  0.47100  Biso   1.000  C
  H50      1.0000 0.93090  0.59560  0.45320  Biso   1.000  H
  C83      1.0000 0.84650  0.61000  0.54030  Biso   1.000  C
  H51      1.0000 0.93120  0.62440  0.56880  Biso   1.000  H
  C84      1.0000 0.61040  0.58850  0.52880  Biso   1.000  C
  H52      1.0000 0.52890  0.58590  0.55000  Biso   1.000  H
  C85      1.0000 0.91350  0.91740  0.81110  Biso   1.000  C
  H53      1.0000 0.99960  0.92080  0.79400  Biso   1.000  H
  C86      1.0000 0.68970  0.92800  0.80010  Biso   1.000  C
  H54      1.0000 0.61460  0.93740  0.77460  Biso   1.000  H
  C87      1.0000 0.67520  0.91760  0.86520  Biso   1.000  C
  H55      1.0000 0.59240  0.92200  0.88350  Biso   1.000  H
  C88      1.0000 0.90240  0.90470  0.87500  Biso   1.000  C
  H56      1.0000 0.97960  0.89820  0.90080  Biso   1.000  H
  C89      1.0000 0.77760  0.90150  0.90150  Biso   1.000  C
  C90      1.0000 0.76350  0.88740  0.96880  Biso   1.000  C
  C91      1.0000 0.75120  0.87560  0.02210  Biso   1.000  C
  C92      1.0000 0.74220  0.87070  0.08950  Biso   1.000  C
  C93      1.0000 0.62540  0.88270  0.12210  Biso   1.000  C
  H57      1.0000 0.54700  0.88960  0.09740  Biso   1.000  H
  C94      1.0000 0.85670  0.86130  0.12880  Biso   1.000  C
  H58      1.0000 0.93680  0.85510  0.10850  Biso   1.000  H
  C95      1.0000 0.85620  0.86060  0.19420  Biso   1.000  C
  H59      1.0000 0.93340  0.85220  0.21890  Biso   1.000  H
  C96      1.0000 0.62480  0.88430  0.18970  Biso   1.000  C
  H60      1.0000 0.54720  0.89330  0.21120  Biso   1.000  H
  C97      1.0000 0.73790  0.87270  0.22510  Biso   1.000  C
  C98      1.0000 0.73990  0.87380  0.29580  Biso   1.000  C
  C99      1.0000 0.74940  0.88070  0.35380  Biso   1.000  C
  C100     1.0000 0.75980  0.89020  0.42290  Biso   1.000  C
  C101     1.0000 0.64390  0.88720  0.46220  Biso   1.000  C
  H61      1.0000 0.55290  0.87740  0.44060  Biso   1.000  H
  C102     1.0000 0.88920  0.90880  0.46340  Biso   1.000  C
  H62      1.0000 0.97210  0.91750  0.44290  Biso   1.000  H
  C103     1.0000 0.89900  0.91460  0.53010  Biso   1.000  C
  H63      1.0000 0.98610  0.92050  0.55410  Biso   1.000  H
  C104     1.0000 0.66480  0.89850  0.52940  Biso   1.000  C
  H64      1.0000 0.58710  0.89630  0.55330  Biso   1.000  H
  C105     1.0000 0.68250  0.64750  0.45880  Biso   1.000  C
  C106     1.0000 0.76660  0.51760  0.45760  Biso   1.000  C
  C107     1.0000 0.77220  0.53410  0.52690  Biso   1.000  C
  C108     1.0000 0.69060  0.65950  0.52940  Biso   1.000  C
  C109     1.0000 0.72450  0.96220  0.46290  Biso   1.000  C
  C110     1.0000 0.81030  0.82810  0.45140  Biso   1.000  C
  C111     1.0000 0.82020  0.84430  0.52030  Biso   1.000  C
  C112     1.0000 0.74030  0.97280  0.53020  Biso   1.000  C
  H65      1.0000 0.64980  0.68880  0.43680  Biso   1.000  H
  H66      1.0000 0.79320  0.46590  0.43310  Biso   1.000  H
  H67      1.0000 0.80630  0.49340  0.54890  Biso   1.000  H
  H68      1.0000 0.66400  0.71140  0.55340  Biso   1.000  H
  H69      1.0000 0.68890  0.00490  0.44370  Biso   1.000  H
  H70      1.0000 0.83670  0.77750  0.42550  Biso   1.000  H
  H71      1.0000 0.85510  0.80160  0.53990  Biso   1.000  H
  H72      1.0000 0.71810  0.02490  0.55670  Biso   1.000  H
