data_image0
_cell_length_a       12.351
_cell_length_b       16.583
_cell_length_c       18.987
_cell_angle_alpha    90
_cell_angle_beta     115.837
_cell_angle_gamma    90

_symmetry_space_group_name_H-M    "P 1"
_symmetry_int_tables_number       1

loop_
  _symmetry_equiv_pos_as_xyz
  'x, y, z'

loop_
  _atom_site_label
  _atom_site_occupancy
  _atom_site_fract_x
  _atom_site_fract_y
  _atom_site_fract_z
  _atom_site_thermal_displace_type
  _atom_site_B_iso_or_equiv
  _atom_site_type_symbol
  Co1      1.0000 0.12336  0.98162  0.29140  Biso   1.000  Co
  C1       1.0000 0.99970  0.05740  0.38890  Biso   1.000  C
  H1       1.0000 0.92520  0.05040  0.34630  Biso   1.000  H
  N1       1.0000 0.10330  0.04350  0.38330  Biso   1.000  N
  C2       1.0000 0.18540  0.06200  0.45270  Biso   1.000  C
  H2       1.0000 0.26790  0.06260  0.46800  Biso   1.000  H
  N2       1.0000 0.00850  0.08080  0.45630  Biso   1.000  N
  C3       1.0000 0.19000  0.10590  0.58020  Biso   1.000  C
  H3       1.0000 0.27490  0.09490  0.59950  Biso   1.000  H
  H4       1.0000 0.15990  0.07190  0.60950  Biso   1.000  H
  N3       1.0000 0.13090  0.08010  0.49870  Biso   1.000  N
  C4       1.0000 0.17800  0.17970  0.59690  Biso   1.000  C
  H5       1.0000 0.13940  0.17590  0.63140  Biso   1.000  H
  H6       1.0000 0.26010  0.19680  0.62980  Biso   1.000  H
  N4       1.0000 0.05310  0.32430  0.63170  Biso   1.000  N
  C5       1.0000 0.12280  0.25030  0.54840  Biso   1.000  C
  H7       1.0000 0.09620  0.23530  0.49400  Biso   1.000  H
  H8       1.0000 0.18390  0.29160  0.56040  Biso   1.000  H
  N5       1.0000 0.05190  0.28080  0.69260  Biso   1.000  N
  C6       1.0000 0.02150  0.28510  0.55710  Biso   1.000  C
  H9       1.0000 0.96370  0.24270  0.55060  Biso   1.000  H
  H10      1.0000 0.98250  0.32420  0.51570  Biso   1.000  H
  N6       1.0000 0.09800  0.41060  0.72730  Biso   1.000  N
  C7       1.0000 0.07810  0.39970  0.65320  Biso   1.000  C
  H11      1.0000 0.08150  0.44060  0.62070  Biso   1.000  H
  N7       1.0000 0.13420  0.89450  0.21240  Biso   1.000  N
  C8       1.0000 0.07970  0.33430  0.74720  Biso   1.000  C
  H12      1.0000 0.08690  0.32170  0.79670  Biso   1.000  H
  N8       1.0000 0.08370  0.77880  0.14390  Biso   1.000  N
  C9       1.0000 0.04700  0.84430  0.16640  Biso   1.000  C
  H13      1.0000 0.96600  0.85490  0.15140  Biso   1.000  H
  N9       1.0000 0.20470  0.78780  0.18250  Biso   1.000  N
  C10      1.0000 0.23150  0.85580  0.22090  Biso   1.000  C
  H14      1.0000 0.30950  0.87430  0.25050  Biso   1.000  H
  N10      1.0000 0.50960  0.54760  0.11880  Biso   1.000  N
  C11      1.0000 0.29000  0.72340  0.18180  Biso   1.000  C
  H15      1.0000 0.28180  0.67680  0.21000  Biso   1.000  H
  H16      1.0000 0.37160  0.74330  0.20980  Biso   1.000  H
  N11      1.0000 0.48440  0.47790  0.07880  Biso   1.000  N
  C12      1.0000 0.27150  0.69750  0.10320  Biso   1.000  C
  H17      1.0000 0.20530  0.65940  0.08240  Biso   1.000  H
  H18      1.0000 0.25050  0.74380  0.06850  Biso   1.000  H
  N12      1.0000 0.68290  0.49310  0.15250  Biso   1.000  N
  C13      1.0000 0.38500  0.65800  0.10600  Biso   1.000  C
  H19      1.0000 0.45480  0.68610  0.14400  Biso   1.000  H
  H20      1.0000 0.38520  0.66370  0.05520  Biso   1.000  H
  C14      1.0000 0.67700  0.38700  0.89270  Biso   1.000  C
  H21      1.0000 0.72820  0.41900  0.93770  Biso   1.000  H
  H22      1.0000 0.66770  0.41460  0.84530  Biso   1.000  H
  C15      1.0000 0.39400  0.57140  0.12700  Biso   1.000  C
  H23      1.0000 0.40370  0.56350  0.17980  Biso   1.000  H
  H24      1.0000 0.32490  0.54130  0.09080  Biso   1.000  H
  C16      1.0000 0.56700  0.37290  0.89200  Biso   1.000  C
  H25      1.0000 0.57960  0.34770  0.94160  Biso   1.000  H
  H26      1.0000 0.52180  0.33550  0.85070  Biso   1.000  H
  C17      1.0000 0.62460  0.55540  0.16110  Biso   1.000  C
  H27      1.0000 0.66070  0.59930  0.19310  Biso   1.000  H
  C18      1.0000 0.59160  0.44680  0.10280  Biso   1.000  C
  H28      1.0000 0.60440  0.39610  0.08680  Biso   1.000  H
  Co2      1.0000 0.87664  0.48162  0.20860  Biso   1.000  Co
  C19      1.0000 0.00030  0.55740  0.11110  Biso   1.000  C
  H29      1.0000 0.07480  0.55040  0.15370  Biso   1.000  H
  N13      1.0000 0.89670  0.54350  0.11670  Biso   1.000  N
  C20      1.0000 0.81460  0.56200  0.04730  Biso   1.000  C
  H30      1.0000 0.73210  0.56260  0.03200  Biso   1.000  H
  N14      1.0000 0.99150  0.58080  0.04370  Biso   1.000  N
  C21      1.0000 0.81000  0.60590  0.91980  Biso   1.000  C
  H31      1.0000 0.72510  0.59490  0.90050  Biso   1.000  H
  H32      1.0000 0.84010  0.57190  0.89050  Biso   1.000  H
  N15      1.0000 0.86910  0.58010  0.00130  Biso   1.000  N
  C22      1.0000 0.82200  0.67970  0.90310  Biso   1.000  C
  H33      1.0000 0.86060  0.67590  0.86860  Biso   1.000  H
  H34      1.0000 0.73990  0.69680  0.87020  Biso   1.000  H
  N16      1.0000 0.94690  0.82430  0.86830  Biso   1.000  N
  C23      1.0000 0.87720  0.75030  0.95160  Biso   1.000  C
  H35      1.0000 0.90380  0.73530  0.00600  Biso   1.000  H
  H36      1.0000 0.81610  0.79160  0.93960  Biso   1.000  H
  N17      1.0000 0.94810  0.78080  0.80740  Biso   1.000  N
  C24      1.0000 0.97850  0.78510  0.94290  Biso   1.000  C
  H37      1.0000 0.03630  0.74270  0.94940  Biso   1.000  H
  H38      1.0000 0.01750  0.82420  0.98430  Biso   1.000  H
  N18      1.0000 0.90200  0.91060  0.77270  Biso   1.000  N
  C25      1.0000 0.92190  0.89970  0.84680  Biso   1.000  C
  H39      1.0000 0.91850  0.94060  0.87930  Biso   1.000  H
  N19      1.0000 0.86580  0.39450  0.28760  Biso   1.000  N
  C26      1.0000 0.92030  0.83430  0.75280  Biso   1.000  C
  H40      1.0000 0.91310  0.82170  0.70330  Biso   1.000  H
  N20      1.0000 0.91630  0.27880  0.35610  Biso   1.000  N
  C27      1.0000 0.95300  0.34430  0.33360  Biso   1.000  C
  H41      1.0000 0.03400  0.35490  0.34860  Biso   1.000  H
  N21      1.0000 0.79530  0.28780  0.31750  Biso   1.000  N
  C28      1.0000 0.76850  0.35580  0.27910  Biso   1.000  C
  H42      1.0000 0.69050  0.37430  0.24950  Biso   1.000  H
  N22      1.0000 0.49040  0.04760  0.38120  Biso   1.000  N
  C29      1.0000 0.71000  0.22340  0.31820  Biso   1.000  C
  H43      1.0000 0.71820  0.17680  0.29000  Biso   1.000  H
  H44      1.0000 0.62840  0.24330  0.29020  Biso   1.000  H
  N23      1.0000 0.51560  0.97790  0.42120  Biso   1.000  N
  C30      1.0000 0.72850  0.19750  0.39680  Biso   1.000  C
  H45      1.0000 0.79470  0.15940  0.41760  Biso   1.000  H
  H46      1.0000 0.74950  0.24380  0.43150  Biso   1.000  H
  N24      1.0000 0.31710  0.99310  0.34750  Biso   1.000  N
  C31      1.0000 0.61500  0.15800  0.39400  Biso   1.000  C
  H47      1.0000 0.54520  0.18610  0.35600  Biso   1.000  H
  H48      1.0000 0.61480  0.16370  0.44480  Biso   1.000  H
  C32      1.0000 0.32300  0.88700  0.60730  Biso   1.000  C
  H49      1.0000 0.27180  0.91900  0.56230  Biso   1.000  H
  H50      1.0000 0.33230  0.91460  0.65470  Biso   1.000  H
  C33      1.0000 0.60600  0.07140  0.37300  Biso   1.000  C
  H51      1.0000 0.59630  0.06350  0.32020  Biso   1.000  H
  H52      1.0000 0.67510  0.04130  0.40920  Biso   1.000  H
  C34      1.0000 0.43300  0.87290  0.60800  Biso   1.000  C
  H53      1.0000 0.42040  0.84770  0.55840  Biso   1.000  H
  H54      1.0000 0.47820  0.83550  0.64930  Biso   1.000  H
  C35      1.0000 0.37540  0.05540  0.33890  Biso   1.000  C
  H55      1.0000 0.33930  0.09930  0.30690  Biso   1.000  H
  C36      1.0000 0.40840  0.94680  0.39720  Biso   1.000  C
  H56      1.0000 0.39560  0.89610  0.41320  Biso   1.000  H
  Co3      1.0000 0.87664  0.01838  0.70860  Biso   1.000  Co
  C37      1.0000 0.00030  0.94260  0.61110  Biso   1.000  C
  H57      1.0000 0.07480  0.94960  0.65370  Biso   1.000  H
  N25      1.0000 0.89670  0.95650  0.61670  Biso   1.000  N
  C38      1.0000 0.81460  0.93800  0.54730  Biso   1.000  C
  H58      1.0000 0.73210  0.93740  0.53200  Biso   1.000  H
  N26      1.0000 0.99150  0.91920  0.54370  Biso   1.000  N
  C39      1.0000 0.81000  0.89410  0.41980  Biso   1.000  C
  H59      1.0000 0.72510  0.90510  0.40050  Biso   1.000  H
  H60      1.0000 0.84010  0.92810  0.39050  Biso   1.000  H
  N27      1.0000 0.86910  0.91990  0.50130  Biso   1.000  N
  C40      1.0000 0.82200  0.82030  0.40310  Biso   1.000  C
  H61      1.0000 0.86060  0.82410  0.36860  Biso   1.000  H
  H62      1.0000 0.73990  0.80320  0.37020  Biso   1.000  H
  N28      1.0000 0.94690  0.67570  0.36830  Biso   1.000  N
  C41      1.0000 0.87720  0.74970  0.45160  Biso   1.000  C
  H63      1.0000 0.90380  0.76470  0.50600  Biso   1.000  H
  H64      1.0000 0.81610  0.70840  0.43960  Biso   1.000  H
  N29      1.0000 0.94810  0.71920  0.30740  Biso   1.000  N
  C42      1.0000 0.97850  0.71490  0.44290  Biso   1.000  C
  H65      1.0000 0.03630  0.75730  0.44940  Biso   1.000  H
  H66      1.0000 0.01750  0.67580  0.48430  Biso   1.000  H
  N30      1.0000 0.90200  0.58940  0.27270  Biso   1.000  N
  C43      1.0000 0.92190  0.60030  0.34680  Biso   1.000  C
  H67      1.0000 0.91850  0.55940  0.37930  Biso   1.000  H
  N31      1.0000 0.86580  0.10550  0.78760  Biso   1.000  N
  C44      1.0000 0.92030  0.66570  0.25280  Biso   1.000  C
  H68      1.0000 0.91310  0.67830  0.20330  Biso   1.000  H
  N32      1.0000 0.91630  0.22120  0.85610  Biso   1.000  N
  C45      1.0000 0.95300  0.15570  0.83360  Biso   1.000  C
  H69      1.0000 0.03400  0.14510  0.84860  Biso   1.000  H
  N33      1.0000 0.79530  0.21220  0.81750  Biso   1.000  N
  C46      1.0000 0.76850  0.14420  0.77910  Biso   1.000  C
  H70      1.0000 0.69050  0.12570  0.74950  Biso   1.000  H
  N34      1.0000 0.49040  0.45240  0.88120  Biso   1.000  N
  C47      1.0000 0.71000  0.27660  0.81820  Biso   1.000  C
  H71      1.0000 0.71820  0.32320  0.79000  Biso   1.000  H
  H72      1.0000 0.62840  0.25670  0.79020  Biso   1.000  H
  N35      1.0000 0.51560  0.52210  0.92120  Biso   1.000  N
  C48      1.0000 0.72850  0.30250  0.89680  Biso   1.000  C
  H73      1.0000 0.79470  0.34060  0.91760  Biso   1.000  H
  H74      1.0000 0.74950  0.25620  0.93150  Biso   1.000  H
  N36      1.0000 0.31710  0.50690  0.84750  Biso   1.000  N
  C49      1.0000 0.61500  0.34200  0.89400  Biso   1.000  C
  H75      1.0000 0.54520  0.31390  0.85600  Biso   1.000  H
  H76      1.0000 0.61480  0.33630  0.94480  Biso   1.000  H
  C50      1.0000 0.32300  0.61300  0.10730  Biso   1.000  C
  H77      1.0000 0.27180  0.58100  0.06230  Biso   1.000  H
  H78      1.0000 0.33230  0.58540  0.15470  Biso   1.000  H
  C51      1.0000 0.60600  0.42860  0.87300  Biso   1.000  C
  H79      1.0000 0.59630  0.43650  0.82020  Biso   1.000  H
  H80      1.0000 0.67510  0.45870  0.90920  Biso   1.000  H
  C52      1.0000 0.43300  0.62710  0.10800  Biso   1.000  C
  H81      1.0000 0.42040  0.65230  0.05840  Biso   1.000  H
  H82      1.0000 0.47820  0.66450  0.14930  Biso   1.000  H
  C53      1.0000 0.37540  0.44460  0.83890  Biso   1.000  C
  H83      1.0000 0.33930  0.40070  0.80690  Biso   1.000  H
  C54      1.0000 0.40840  0.55320  0.89720  Biso   1.000  C
  H84      1.0000 0.39560  0.60390  0.91320  Biso   1.000  H
  Co4      1.0000 0.12336  0.51838  0.79140  Biso   1.000  Co
  C55      1.0000 0.99970  0.44260  0.88890  Biso   1.000  C
  H85      1.0000 0.92520  0.44960  0.84630  Biso   1.000  H
  N37      1.0000 0.10330  0.45650  0.88330  Biso   1.000  N
  C56      1.0000 0.18540  0.43800  0.95270  Biso   1.000  C
  H86      1.0000 0.26790  0.43740  0.96800  Biso   1.000  H
  N38      1.0000 0.00850  0.41920  0.95630  Biso   1.000  N
  C57      1.0000 0.19000  0.39410  0.08020  Biso   1.000  C
  H87      1.0000 0.27490  0.40510  0.09950  Biso   1.000  H
  H88      1.0000 0.15990  0.42810  0.10950  Biso   1.000  H
  N39      1.0000 0.13090  0.41990  0.99870  Biso   1.000  N
  C58      1.0000 0.17800  0.32030  0.09690  Biso   1.000  C
  H89      1.0000 0.13940  0.32410  0.13140  Biso   1.000  H
  H90      1.0000 0.26010  0.30320  0.12980  Biso   1.000  H
  N40      1.0000 0.05310  0.17570  0.13170  Biso   1.000  N
  C59      1.0000 0.12280  0.24970  0.04840  Biso   1.000  C
  H91      1.0000 0.09620  0.26470  0.99400  Biso   1.000  H
  H92      1.0000 0.18390  0.20840  0.06040  Biso   1.000  H
  N41      1.0000 0.05190  0.21920  0.19260  Biso   1.000  N
  C60      1.0000 0.02150  0.21490  0.05710  Biso   1.000  C
  H93      1.0000 0.96370  0.25730  0.05060  Biso   1.000  H
  H94      1.0000 0.98250  0.17580  0.01570  Biso   1.000  H
  N42      1.0000 0.09800  0.08940  0.22730  Biso   1.000  N
  C61      1.0000 0.07810  0.10030  0.15320  Biso   1.000  C
  H95      1.0000 0.08150  0.05940  0.12070  Biso   1.000  H
  N43      1.0000 0.13420  0.60550  0.71240  Biso   1.000  N
  C62      1.0000 0.07970  0.16570  0.24720  Biso   1.000  C
  H96      1.0000 0.08690  0.17830  0.29670  Biso   1.000  H
  N44      1.0000 0.08370  0.72120  0.64390  Biso   1.000  N
  C63      1.0000 0.04700  0.65570  0.66640  Biso   1.000  C
  H97      1.0000 0.96600  0.64510  0.65140  Biso   1.000  H
  N45      1.0000 0.20470  0.71220  0.68250  Biso   1.000  N
  C64      1.0000 0.23150  0.64420  0.72090  Biso   1.000  C
  H98      1.0000 0.30950  0.62570  0.75050  Biso   1.000  H
  N46      1.0000 0.50960  0.95240  0.61880  Biso   1.000  N
  C65      1.0000 0.29000  0.77660  0.68180  Biso   1.000  C
  H99      1.0000 0.28180  0.82320  0.71000  Biso   1.000  H
  H100     1.0000 0.37160  0.75670  0.70980  Biso   1.000  H
  N47      1.0000 0.48440  0.02210  0.57880  Biso   1.000  N
  C66      1.0000 0.27150  0.80250  0.60320  Biso   1.000  C
  H101     1.0000 0.20530  0.84060  0.58240  Biso   1.000  H
  H102     1.0000 0.25050  0.75620  0.56850  Biso   1.000  H
  N48      1.0000 0.68290  0.00690  0.65250  Biso   1.000  N
  C67      1.0000 0.38500  0.84200  0.60600  Biso   1.000  C
  H103     1.0000 0.45480  0.81390  0.64400  Biso   1.000  H
  H104     1.0000 0.38520  0.83630  0.55520  Biso   1.000  H
  C68      1.0000 0.67700  0.11300  0.39270  Biso   1.000  C
  H105     1.0000 0.72820  0.08100  0.43770  Biso   1.000  H
  H106     1.0000 0.66770  0.08540  0.34530  Biso   1.000  H
  C69      1.0000 0.39400  0.92860  0.62700  Biso   1.000  C
  H107     1.0000 0.40370  0.93650  0.67980  Biso   1.000  H
  H108     1.0000 0.32490  0.95870  0.59080  Biso   1.000  H
  C70      1.0000 0.56700  0.12710  0.39200  Biso   1.000  C
  H109     1.0000 0.57960  0.15230  0.44160  Biso   1.000  H
  H110     1.0000 0.52180  0.16450  0.35070  Biso   1.000  H
  C71      1.0000 0.62460  0.94460  0.66110  Biso   1.000  C
  H111     1.0000 0.66070  0.90070  0.69310  Biso   1.000  H
  C72      1.0000 0.59160  0.05320  0.60280  Biso   1.000  C
  H112     1.0000 0.60440  0.10390  0.58680  Biso   1.000  H
