data_image0
_cell_length_a       7.0503
_cell_length_b       10.9102
_cell_length_c       15.0341
_cell_angle_alpha    90
_cell_angle_beta     90
_cell_angle_gamma    90

_symmetry_space_group_name_H-M    "P 1"
_symmetry_int_tables_number       1

loop_
  _symmetry_equiv_pos_as_xyz
  'x, y, z'

loop_
  _atom_site_label
  _atom_site_occupancy
  _atom_site_fract_x
  _atom_site_fract_y
  _atom_site_fract_z
  _atom_site_thermal_displace_type
  _atom_site_B_iso_or_equiv
  _atom_site_type_symbol
  Ag1      1.0000 0.84487  0.16622  0.03586  Biso   1.000  Ag
  Ag2      1.0000 0.04017  0.98935  0.21697  Biso   1.000  Ag
  N1       1.0000 0.92630  0.89240  0.09880  Biso   1.000  N
  N2       1.0000 0.86540  0.96070  0.03340  Biso   1.000  N
  N3       1.0000 0.81100  0.88590  0.96680  Biso   1.000  N
  H1       1.0000 0.76720  0.91070  0.91650  Biso   1.000  H
  C1       1.0000 0.90940  0.77200  0.07540  Biso   1.000  C
  C2       1.0000 0.95180  0.66380  0.12130  Biso   1.000  C
  H2       1.0000 0.00410  0.66530  0.17810  Biso   1.000  H
  C3       1.0000 0.91270  0.55530  0.07870  Biso   1.000  C
  H3       1.0000 0.93770  0.48180  0.10790  Biso   1.000  H
  C4       1.0000 0.83620  0.55200  0.99260  Biso   1.000  C
  H4       1.0000 0.81320  0.47640  0.96620  Biso   1.000  H
  C5       1.0000 0.79400  0.65740  0.94600  Biso   1.000  C
  H5       1.0000 0.74190  0.65490  0.88920  Biso   1.000  H
  C6       1.0000 0.83400  0.76820  0.98900  Biso   1.000  C
  Ag3      1.0000 0.15513  0.83378  0.53586  Biso   1.000  Ag
  Ag4      1.0000 0.95983  0.01065  0.71697  Biso   1.000  Ag
  N4       1.0000 0.07370  0.10760  0.59880  Biso   1.000  N
  N5       1.0000 0.13460  0.03930  0.53340  Biso   1.000  N
  N6       1.0000 0.18900  0.11410  0.46680  Biso   1.000  N
  H6       1.0000 0.23280  0.08930  0.41650  Biso   1.000  H
  C7       1.0000 0.09060  0.22800  0.57540  Biso   1.000  C
  C8       1.0000 0.04820  0.33620  0.62130  Biso   1.000  C
  H7       1.0000 0.99590  0.33470  0.67810  Biso   1.000  H
  C9       1.0000 0.08730  0.44470  0.57870  Biso   1.000  C
  H8       1.0000 0.06230  0.51820  0.60790  Biso   1.000  H
  C10      1.0000 0.16380  0.44800  0.49260  Biso   1.000  C
  H9       1.0000 0.18680  0.52360  0.46620  Biso   1.000  H
  C11      1.0000 0.20600  0.34260  0.44600  Biso   1.000  C
  H10      1.0000 0.25810  0.34510  0.38920  Biso   1.000  H
  C12      1.0000 0.16600  0.23180  0.48900  Biso   1.000  C
  Ag5      1.0000 0.34487  0.33378  0.03586  Biso   1.000  Ag
  Ag6      1.0000 0.54017  0.51065  0.21697  Biso   1.000  Ag
  N7       1.0000 0.42630  0.60760  0.09880  Biso   1.000  N
  N8       1.0000 0.36540  0.53930  0.03340  Biso   1.000  N
  N9       1.0000 0.31100  0.61410  0.96680  Biso   1.000  N
  H11      1.0000 0.26720  0.58930  0.91650  Biso   1.000  H
  C13      1.0000 0.40940  0.72800  0.07540  Biso   1.000  C
  C14      1.0000 0.45180  0.83620  0.12130  Biso   1.000  C
  H12      1.0000 0.50410  0.83470  0.17810  Biso   1.000  H
  C15      1.0000 0.41270  0.94470  0.07870  Biso   1.000  C
  H13      1.0000 0.43770  0.01820  0.10790  Biso   1.000  H
  C16      1.0000 0.33620  0.94800  0.99260  Biso   1.000  C
  H14      1.0000 0.31320  0.02360  0.96620  Biso   1.000  H
  C17      1.0000 0.29400  0.84260  0.94600  Biso   1.000  C
  H15      1.0000 0.24190  0.84510  0.88920  Biso   1.000  H
  C18      1.0000 0.33400  0.73180  0.98900  Biso   1.000  C
  Ag7      1.0000 0.65513  0.66622  0.53586  Biso   1.000  Ag
  Ag8      1.0000 0.45983  0.48935  0.71697  Biso   1.000  Ag
  N10      1.0000 0.57370  0.39240  0.59880  Biso   1.000  N
  N11      1.0000 0.63460  0.46070  0.53340  Biso   1.000  N
  N12      1.0000 0.68900  0.38590  0.46680  Biso   1.000  N
  H16      1.0000 0.73280  0.41070  0.41650  Biso   1.000  H
  C19      1.0000 0.59060  0.27200  0.57540  Biso   1.000  C
  C20      1.0000 0.54820  0.16380  0.62130  Biso   1.000  C
  H17      1.0000 0.49590  0.16530  0.67810  Biso   1.000  H
  C21      1.0000 0.58730  0.05530  0.57870  Biso   1.000  C
  H18      1.0000 0.56230  0.98180  0.60790  Biso   1.000  H
  C22      1.0000 0.66380  0.05200  0.49260  Biso   1.000  C
  H19      1.0000 0.68680  0.97640  0.46620  Biso   1.000  H
  C23      1.0000 0.70600  0.15740  0.44600  Biso   1.000  C
  H20      1.0000 0.75810  0.15490  0.38920  Biso   1.000  H
  C24      1.0000 0.66600  0.26820  0.48900  Biso   1.000  C
