data_image0
_cell_length_a       16.91
_cell_length_b       16.91
_cell_length_c       10
_cell_angle_alpha    90
_cell_angle_beta     90
_cell_angle_gamma    120

_symmetry_space_group_name_H-M    "P 1"
_symmetry_int_tables_number       1

loop_
  _symmetry_equiv_pos_as_xyz
  'x, y, z'

loop_
  _atom_site_label
  _atom_site_occupancy
  _atom_site_fract_x
  _atom_site_fract_y
  _atom_site_fract_z
  _atom_site_thermal_displace_type
  _atom_site_B_iso_or_equiv
  _atom_site_type_symbol
  Au1      1.0000 0.50000  0.00000  0.50000  Biso   1.000  Au
  Au2      1.0000 0.00000  0.50000  0.50000  Biso   1.000  Au
  Au3      1.0000 0.50000  0.50000  0.50000  Biso   1.000  Au
  O1       1.0000 0.09549  0.46255  0.50000  Biso   1.000  O
  O2       1.0000 0.53746  0.63292  0.50000  Biso   1.000  O
  O3       1.0000 0.36718  0.90447  0.50000  Biso   1.000  O
  O4       1.0000 0.90451  0.53745  0.50000  Biso   1.000  O
  O5       1.0000 0.46254  0.36708  0.50000  Biso   1.000  O
  O6       1.0000 0.63282  0.09553  0.50000  Biso   1.000  O
  N1       1.0000 0.09557  0.63099  0.50000  Biso   1.000  N
  N2       1.0000 0.36896  0.46445  0.50000  Biso   1.000  N
  N3       1.0000 0.53554  0.90448  0.50000  Biso   1.000  N
  N4       1.0000 0.90443  0.36901  0.50000  Biso   1.000  N
  N5       1.0000 0.63104  0.53555  0.50000  Biso   1.000  N
  N6       1.0000 0.46446  0.09552  0.50000  Biso   1.000  N
  H1       1.0000 0.07078  0.67479  0.50000  Biso   1.000  H
  H2       1.0000 0.32510  0.39587  0.50000  Biso   1.000  H
  H3       1.0000 0.60413  0.92926  0.50000  Biso   1.000  H
  H4       1.0000 0.92922  0.32521  0.50000  Biso   1.000  H
  H5       1.0000 0.67490  0.60413  0.50000  Biso   1.000  H
  H6       1.0000 0.39587  0.07074  0.50000  Biso   1.000  H
  H7       1.0000 0.20326  0.80443  0.50000  Biso   1.000  H
  H8       1.0000 0.19557  0.39878  0.50000  Biso   1.000  H
  H9       1.0000 0.60125  0.79678  0.50000  Biso   1.000  H
  H10      1.0000 0.79674  0.19557  0.50000  Biso   1.000  H
  H11      1.0000 0.80443  0.60122  0.50000  Biso   1.000  H
  H12      1.0000 0.39875  0.20322  0.50000  Biso   1.000  H
  C1       1.0000 0.18619  0.51978  0.50000  Biso   1.000  C
  C2       1.0000 0.48025  0.66640  0.50000  Biso   1.000  C
  C3       1.0000 0.33364  0.81378  0.50000  Biso   1.000  C
  C4       1.0000 0.81381  0.48022  0.50000  Biso   1.000  C
  C5       1.0000 0.51975  0.33360  0.50000  Biso   1.000  C
  C6       1.0000 0.66636  0.18622  0.50000  Biso   1.000  C
  C7       1.0000 0.51805  0.18756  0.50000  Biso   1.000  C
  C8       1.0000 0.81240  0.33052  0.50000  Biso   1.000  C
  C9       1.0000 0.66947  0.48193  0.50000  Biso   1.000  C
  C10      1.0000 0.48195  0.81244  0.50000  Biso   1.000  C
  C11      1.0000 0.18760  0.66948  0.50000  Biso   1.000  C
  C12      1.0000 0.33053  0.51807  0.50000  Biso   1.000  C
  C13      1.0000 0.33337  0.66665  0.50000  Biso   1.000  C
  C14      1.0000 0.66663  0.33335  0.50000  Biso   1.000  C
  C15      1.0000 0.23858  0.76535  0.50000  Biso   1.000  C
  C16      1.0000 0.23465  0.47319  0.50000  Biso   1.000  C
  C17      1.0000 0.52684  0.76145  0.50000  Biso   1.000  C
  C18      1.0000 0.76142  0.23465  0.50000  Biso   1.000  C
  C19      1.0000 0.76535  0.52681  0.50000  Biso   1.000  C
  C20      1.0000 0.47316  0.23855  0.50000  Biso   1.000  C
  C21      1.0000 0.38205  0.61645  0.50000  Biso   1.000  C
  C22      1.0000 0.38356  0.76552  0.50000  Biso   1.000  C
  C23      1.0000 0.23449  0.61797  0.50000  Biso   1.000  C
  C24      1.0000 0.61795  0.38355  0.50000  Biso   1.000  C
  C25      1.0000 0.61644  0.23448  0.50000  Biso   1.000  C
  C26      1.0000 0.76551  0.38203  0.50000  Biso   1.000  C
