data_image0
_cell_length_a       8.469
_cell_length_b       9.433
_cell_length_c       12.867
_cell_angle_alpha    90
_cell_angle_beta     94.9
_cell_angle_gamma    90

_symmetry_space_group_name_H-M    "P 1"
_symmetry_int_tables_number       1

loop_
  _symmetry_equiv_pos_as_xyz
  'x, y, z'

loop_
  _atom_site_label
  _atom_site_occupancy
  _atom_site_fract_x
  _atom_site_fract_y
  _atom_site_fract_z
  _atom_site_thermal_displace_type
  _atom_site_B_iso_or_equiv
  _atom_site_type_symbol
  Mn1      1.0000 0.14600  0.79000  0.37400  Biso   1.000  Mn
  N1       1.0000 0.16000  0.01000  0.43000  Biso   1.000  N
  C1       1.0000 0.14000  0.11000  0.47000  Biso   1.000  C
  S1       1.0000 0.12100  0.26300  0.53400  Biso   1.000  S
  N2       1.0000 0.14000  0.55000  0.34000  Biso   1.000  N
  C2       1.0000 0.12000  0.45000  0.29000  Biso   1.000  C
  S2       1.0000 0.08700  0.30900  0.22500  Biso   1.000  S
  Mn2      1.0000 0.35400  0.29000  0.12600  Biso   1.000  Mn
  N3       1.0000 0.34000  0.51000  0.07000  Biso   1.000  N
  C3       1.0000 0.36000  0.61000  0.03000  Biso   1.000  C
  S3       1.0000 0.37900  0.76300  0.96600  Biso   1.000  S
  N4       1.0000 0.36000  0.05000  0.16000  Biso   1.000  N
  C4       1.0000 0.38000  0.95000  0.21000  Biso   1.000  C
  S4       1.0000 0.41300  0.80900  0.27500  Biso   1.000  S
  Mn3      1.0000 0.85400  0.21000  0.62600  Biso   1.000  Mn
  N5       1.0000 0.84000  0.99000  0.57000  Biso   1.000  N
  C5       1.0000 0.86000  0.89000  0.53000  Biso   1.000  C
  S5       1.0000 0.87900  0.73700  0.46600  Biso   1.000  S
  N6       1.0000 0.86000  0.45000  0.66000  Biso   1.000  N
  C6       1.0000 0.88000  0.55000  0.71000  Biso   1.000  C
  S6       1.0000 0.91300  0.69100  0.77500  Biso   1.000  S
  Mn4      1.0000 0.64600  0.71000  0.87400  Biso   1.000  Mn
  N7       1.0000 0.66000  0.49000  0.93000  Biso   1.000  N
  C7       1.0000 0.64000  0.39000  0.97000  Biso   1.000  C
  S7       1.0000 0.62100  0.23700  0.03400  Biso   1.000  S
  N8       1.0000 0.64000  0.95000  0.84000  Biso   1.000  N
  C8       1.0000 0.62000  0.05000  0.79000  Biso   1.000  C
  S8       1.0000 0.58700  0.19100  0.72500  Biso   1.000  S
