data_PIYFIO_clean
_audit_creation_date              2015-10-16
_audit_creation_method            'Materials Studio'
_symmetry_space_group_name_H-M    'P1'
_symmetry_Int_Tables_number       1
_symmetry_cell_setting            triclinic
loop_
_symmetry_equiv_pos_as_xyz
  x,y,z
_cell_length_a                    11.4060
_cell_length_b                    11.6360
_cell_length_c                    14.2197
_cell_angle_alpha                 96.0930
_cell_angle_beta                  106.2640
_cell_angle_gamma                 115.7410
loop_
_atom_site_label
_atom_site_type_symbol
_atom_site_fract_x
_atom_site_fract_y
_atom_site_fract_z
_atom_site_U_iso_or_equiv
_atom_site_adp_type
_atom_site_occupancy
Ag1    Ag    0.08252   0.44748   0.41600   0.01267  Uiso   1.00
Ag2    Ag    0.55244   0.64060   0.51600   0.01267  Uiso   1.00
Ag3    Ag    0.67897   0.52603   0.42023   0.01267  Uiso   1.00
Ag4    Ag    0.32103   0.47397   0.57977   0.01267  Uiso   1.00
Ag5    Ag    0.14806   0.21865   0.43078   0.01267  Uiso   1.00
Ag6    Ag    0.94785   0.97987   0.20261   0.01267  Uiso   1.00
Ag7    Ag    0.91748   0.55252   0.58400   0.01267  Uiso   1.00
Ag8    Ag    0.05215   0.02013   0.79739   0.01267  Uiso   1.00
Ag9    Ag    0.44756   0.35940   0.48400   0.01267  Uiso   1.00
Ag10   Ag    0.85194   0.78135   0.56922   0.01267  Uiso   1.00
H1     H     0.29750   0.67310   0.26810   0.01267  Uiso   1.00
H2     H     0.75410   0.31480   0.89880   0.01267  Uiso   1.00
H3     H     0.49160   0.67910   0.95690   0.01267  Uiso   1.00
H4     H     0.57360   0.69460   0.10930   0.01267  Uiso   1.00
H5     H     0.34610   0.29680   0.72230   0.01267  Uiso   1.00
H6     H     0.42640   0.30540   0.89070   0.01267  Uiso   1.00
H7     H     0.17110   0.50230   0.97020   0.01267  Uiso   1.00
H8     H     0.82890   0.49770   0.02980   0.01267  Uiso   1.00
H9     H     0.50840   0.32090   0.04310   0.01267  Uiso   1.00
H10    H     0.41400   0.65890   0.78550   0.01267  Uiso   1.00
H11    H     0.24590   0.68520   0.10120   0.01267  Uiso   1.00
H12    H     0.81770   0.71700   0.82550   0.01267  Uiso   1.00
H13    H     0.70250   0.32690   0.73190   0.01267  Uiso   1.00
H14    H     0.58600   0.34110   0.21450   0.01267  Uiso   1.00
H15    H     0.65390   0.70320   0.27770   0.01267  Uiso   1.00
H16    H     0.18230   0.28300   0.17450   0.01267  Uiso   1.00
C1     C     0.75740   0.52370   0.76200   0.01267  Uiso   1.00
C2     C     0.73650   0.40330   0.78500   0.01267  Uiso   1.00
C3     C     0.70070   0.55070   0.57380   0.01267  Uiso   1.00
C4     C     0.76510   0.39580   0.88380   0.01267  Uiso   1.00
C5     C     0.12600   0.77420   0.77480   0.01267  Uiso   1.00
C6     C     0.29930   0.44930   0.42620   0.01267  Uiso   1.00
C7     C     0.62280   0.62360   0.22910   0.01267  Uiso   1.00
C8     C     0.73090   0.53430   0.65870   0.01267  Uiso   1.00
C9     C     0.24100   0.84370   0.88180   0.01267  Uiso   1.00
C10    C     0.47190   0.49440   0.94500   0.01267  Uiso   1.00
C11    C     0.17390   0.37780   0.06070   0.01267  Uiso   1.00
C12    C     0.42510   0.38060   0.87140   0.01267  Uiso   1.00
C13    C     0.58420   0.41470   0.19230   0.01267  Uiso   1.00
C14    C     0.23490   0.60420   0.11620   0.01267  Uiso   1.00
C15    C     0.80970   0.50390   0.96160   0.01267  Uiso   1.00
C16    C     0.19030   0.49610   0.03840   0.01267  Uiso   1.00
C17    C     0.26910   0.46570   0.34130   0.01267  Uiso   1.00
C18    C     0.13670   0.26590   0.98220   0.01267  Uiso   1.00
C19    C     0.19710   0.36500   0.16020   0.01267  Uiso   1.00
C20    C     0.82610   0.62220   0.93930   0.01267  Uiso   1.00
C21    C     0.26350   0.59670   0.21500   0.01267  Uiso   1.00
C22    C     0.41580   0.58530   0.80770   0.01267  Uiso   1.00
C23    C     0.53600   0.40090   0.08970   0.01267  Uiso   1.00
C24    C     0.87400   0.22580   0.22520   0.01267  Uiso   1.00
C25    C     0.46400   0.59910   0.91030   0.01267  Uiso   1.00
C26    C     0.37720   0.37640   0.77090   0.01267  Uiso   1.00
C27    C     0.80290   0.63500   0.83980   0.01267  Uiso   1.00
C28    C     0.75900   0.15630   0.11820   0.01267  Uiso   1.00
C29    C     0.52810   0.50560   0.05500   0.01267  Uiso   1.00
C30    C     0.24260   0.47630   0.23800   0.01267  Uiso   1.00
C31    C     0.86330   0.73410   0.01780   0.01267  Uiso   1.00
C32    C     0.57490   0.61940   0.12860   0.01267  Uiso   1.00
N1     N     0.37120   0.47530   0.73700   0.01267  Uiso   1.00
N2     N     0.11510   0.18240   0.92070   0.01267  Uiso   1.00
N3     N     0.62880   0.52470   0.26300   0.01267  Uiso   1.00
N4     N     0.88490   0.81760   0.07930   0.01267  Uiso   1.00
O1     O     0.95320   0.17990   0.25020   0.01267  Uiso   1.00
O2     O     0.12440   0.67800   0.72670   0.01267  Uiso   1.00
O3     O     0.87560   0.32200   0.27330   0.01267  Uiso   1.00
O4     O     0.04680   0.82010   0.74980   0.01267  Uiso   1.00
F1     F     0.65780   0.17920   0.10440   0.01267  Uiso   1.00
F2     F     0.29640   0.97330   0.90510   0.01267  Uiso   1.00
F3     F     0.18910   0.81050   0.95100   0.01267  Uiso   1.00
F4     F     0.34220   0.82080   0.89560   0.01267  Uiso   1.00
F5     F     0.70360   0.02670   0.09490   0.01267  Uiso   1.00
F6     F     0.81090   0.18950   0.04900   0.01267  Uiso   1.00
