data_image0
_cell_length_a       12.294
_cell_length_b       21.514
_cell_length_c       19.633
_cell_angle_alpha    90
_cell_angle_beta     90
_cell_angle_gamma    90

_symmetry_space_group_name_H-M    "P 1"
_symmetry_int_tables_number       1

loop_
  _symmetry_equiv_pos_as_xyz
  'x, y, z'

loop_
  _atom_site_label
  _atom_site_occupancy
  _atom_site_fract_x
  _atom_site_fract_y
  _atom_site_fract_z
  _atom_site_thermal_displace_type
  _atom_site_B_iso_or_equiv
  _atom_site_type_symbol
  V1       1.0000 0.99449  0.55462  0.16444  Biso   1.000  V
  O1       1.0000 0.07120  0.50310  0.10280  Biso   1.000  O
  O2       1.0000 0.89500  0.48780  0.18260  Biso   1.000  O
  O3       1.0000 0.12540  0.60200  0.16950  Biso   1.000  O
  V2       1.0000 0.20344  0.46721  0.07065  Biso   1.000  V
  V3       1.0000 0.27818  0.60818  0.16492  Biso   1.000  V
  O4       1.0000 0.34070  0.42600  0.07350  Biso   1.000  O
  O5       1.0000 0.13570  0.38700  0.07490  Biso   1.000  O
  O6       1.0000 0.22540  0.43110  0.18310  Biso   1.000  O
  O7       1.0000 0.27210  0.53980  0.10350  Biso   1.000  O
  O8       1.0000 0.00730  0.38060  0.18400  Biso   1.000  O
  O9       1.0000 0.42970  0.58880  0.18290  Biso   1.000  O
  V4       1.0000 0.39184  0.38730  0.15586  Biso   1.000  V
  V5       1.0000 0.13440  0.33871  0.15644  Biso   1.000  V
  O10      1.0000 0.28570  0.32290  0.14130  Biso   1.000  O
  O11      1.0000 0.45000  0.46540  0.18290  Biso   1.000  O
  W1       1.0000 0.99449  0.55462  0.33556  Biso   1.000  W
  W2       1.0000 0.20344  0.46721  0.42935  Biso   1.000  W
  W3       1.0000 0.27818  0.60818  0.33508  Biso   1.000  W
  W4       1.0000 0.39184  0.38730  0.34414  Biso   1.000  W
  W5       1.0000 0.13440  0.33871  0.34356  Biso   1.000  W
  O12      1.0000 0.07120  0.50310  0.39720  Biso   1.000  O
  O13      1.0000 0.89500  0.48780  0.31740  Biso   1.000  O
  O14      1.0000 0.12540  0.60200  0.33050  Biso   1.000  O
  O15      1.0000 0.34070  0.42600  0.42650  Biso   1.000  O
  O16      1.0000 0.13570  0.38700  0.42510  Biso   1.000  O
  O17      1.0000 0.22540  0.43110  0.31690  Biso   1.000  O
  O18      1.0000 0.27210  0.53980  0.39650  Biso   1.000  O
  O19      1.0000 0.00730  0.38060  0.31600  Biso   1.000  O
  O20      1.0000 0.42970  0.58880  0.31710  Biso   1.000  O
  O21      1.0000 0.28570  0.32290  0.35870  Biso   1.000  O
  O22      1.0000 0.45000  0.46540  0.31710  Biso   1.000  O
  O23      1.0000 0.07570  0.49460  0.25000  Biso   1.000  O
  O24      1.0000 0.95080  0.58930  0.25000  Biso   1.000  O
  V6       1.0000 0.92559  0.42635  0.25000  Biso   1.000  V
  P1       1.0000 0.20070  0.47210  0.25000  Biso   1.000  P
  O25      1.0000 0.27700  0.65180  0.25000  Biso   1.000  O
  O26      1.0000 0.27930  0.53360  0.25000  Biso   1.000  O
  O27      1.0000 0.39830  0.36590  0.25000  Biso   1.000  O
  O28      1.0000 0.15540  0.32000  0.25000  Biso   1.000  O
  V7       1.0000 0.46828  0.52891  0.25000  Biso   1.000  V
  V8       1.0000 0.00551  0.44538  0.66444  Biso   1.000  V
  O29      1.0000 0.92880  0.49690  0.60280  Biso   1.000  O
  O30      1.0000 0.10500  0.51220  0.68260  Biso   1.000  O
  O31      1.0000 0.87460  0.39800  0.66950  Biso   1.000  O
  V9       1.0000 0.79656  0.53279  0.57065  Biso   1.000  V
  V10      1.0000 0.72182  0.39182  0.66492  Biso   1.000  V
  O32      1.0000 0.65930  0.57400  0.57350  Biso   1.000  O
  O33      1.0000 0.86430  0.61300  0.57490  Biso   1.000  O
  O34      1.0000 0.77460  0.56890  0.68310  Biso   1.000  O
  O35      1.0000 0.72790  0.46020  0.60350  Biso   1.000  O
  O36      1.0000 0.99270  0.61940  0.68400  Biso   1.000  O
  O37      1.0000 0.57030  0.41120  0.68290  Biso   1.000  O
  V11      1.0000 0.60816  0.61270  0.65586  Biso   1.000  V
  V12      1.0000 0.86560  0.66129  0.65644  Biso   1.000  V
  O38      1.0000 0.71430  0.67710  0.64130  Biso   1.000  O
  O39      1.0000 0.55000  0.53460  0.68290  Biso   1.000  O
  W6       1.0000 0.00551  0.44538  0.83556  Biso   1.000  W
  W7       1.0000 0.79656  0.53279  0.92935  Biso   1.000  W
  W8       1.0000 0.72182  0.39182  0.83508  Biso   1.000  W
  W9       1.0000 0.60816  0.61270  0.84414  Biso   1.000  W
  W10      1.0000 0.86560  0.66129  0.84356  Biso   1.000  W
  O40      1.0000 0.92880  0.49690  0.89720  Biso   1.000  O
  O41      1.0000 0.10500  0.51220  0.81740  Biso   1.000  O
  O42      1.0000 0.87460  0.39800  0.83050  Biso   1.000  O
  O43      1.0000 0.65930  0.57400  0.92650  Biso   1.000  O
  O44      1.0000 0.86430  0.61300  0.92510  Biso   1.000  O
  O45      1.0000 0.77460  0.56890  0.81690  Biso   1.000  O
  O46      1.0000 0.72790  0.46020  0.89650  Biso   1.000  O
  O47      1.0000 0.99270  0.61940  0.81600  Biso   1.000  O
  O48      1.0000 0.57030  0.41120  0.81710  Biso   1.000  O
  O49      1.0000 0.71430  0.67710  0.85870  Biso   1.000  O
  O50      1.0000 0.55000  0.53460  0.81710  Biso   1.000  O
  O51      1.0000 0.92430  0.50540  0.75000  Biso   1.000  O
  O52      1.0000 0.04920  0.41070  0.75000  Biso   1.000  O
  V13      1.0000 0.07441  0.57365  0.75000  Biso   1.000  V
  P2       1.0000 0.79930  0.52790  0.75000  Biso   1.000  P
  O53      1.0000 0.72300  0.34820  0.75000  Biso   1.000  O
  O54      1.0000 0.72070  0.46640  0.75000  Biso   1.000  O
  O55      1.0000 0.60170  0.63410  0.75000  Biso   1.000  O
  O56      1.0000 0.84460  0.68000  0.75000  Biso   1.000  O
  V14      1.0000 0.53172  0.47109  0.75000  Biso   1.000  V
  V15      1.0000 0.00551  0.05462  0.33556  Biso   1.000  V
  O57      1.0000 0.92880  0.00310  0.39720  Biso   1.000  O
  O58      1.0000 0.10500  0.98780  0.31740  Biso   1.000  O
  O59      1.0000 0.87460  0.10200  0.33050  Biso   1.000  O
  V16      1.0000 0.79656  0.96721  0.42935  Biso   1.000  V
  V17      1.0000 0.72182  0.10818  0.33508  Biso   1.000  V
  O60      1.0000 0.65930  0.92600  0.42650  Biso   1.000  O
  O61      1.0000 0.86430  0.88700  0.42510  Biso   1.000  O
  O62      1.0000 0.77460  0.93110  0.31690  Biso   1.000  O
  O63      1.0000 0.72790  0.03980  0.39650  Biso   1.000  O
  O64      1.0000 0.99270  0.88060  0.31600  Biso   1.000  O
  O65      1.0000 0.57030  0.08880  0.31710  Biso   1.000  O
  V18      1.0000 0.60816  0.88730  0.34414  Biso   1.000  V
  V19      1.0000 0.86560  0.83871  0.34356  Biso   1.000  V
  O66      1.0000 0.71430  0.82290  0.35870  Biso   1.000  O
  O67      1.0000 0.55000  0.96540  0.31710  Biso   1.000  O
  W11      1.0000 0.00551  0.05462  0.16444  Biso   1.000  W
  W12      1.0000 0.79656  0.96721  0.07065  Biso   1.000  W
  W13      1.0000 0.72182  0.10818  0.16492  Biso   1.000  W
  W14      1.0000 0.60816  0.88730  0.15586  Biso   1.000  W
  W15      1.0000 0.86560  0.83871  0.15644  Biso   1.000  W
  O68      1.0000 0.92880  0.00310  0.10280  Biso   1.000  O
  O69      1.0000 0.10500  0.98780  0.18260  Biso   1.000  O
  O70      1.0000 0.87460  0.10200  0.16950  Biso   1.000  O
  O71      1.0000 0.65930  0.92600  0.07350  Biso   1.000  O
  O72      1.0000 0.86430  0.88700  0.07490  Biso   1.000  O
  O73      1.0000 0.77460  0.93110  0.18310  Biso   1.000  O
  O74      1.0000 0.72790  0.03980  0.10350  Biso   1.000  O
  O75      1.0000 0.99270  0.88060  0.18400  Biso   1.000  O
  O76      1.0000 0.57030  0.08880  0.18290  Biso   1.000  O
  O77      1.0000 0.71430  0.82290  0.14130  Biso   1.000  O
  O78      1.0000 0.55000  0.96540  0.18290  Biso   1.000  O
  O79      1.0000 0.92430  0.99460  0.25000  Biso   1.000  O
  O80      1.0000 0.04920  0.08930  0.25000  Biso   1.000  O
  V20      1.0000 0.07441  0.92635  0.25000  Biso   1.000  V
  P3       1.0000 0.79930  0.97210  0.25000  Biso   1.000  P
  O81      1.0000 0.72300  0.15180  0.25000  Biso   1.000  O
  O82      1.0000 0.72070  0.03360  0.25000  Biso   1.000  O
  O83      1.0000 0.60170  0.86590  0.25000  Biso   1.000  O
  O84      1.0000 0.84460  0.82000  0.25000  Biso   1.000  O
  V21      1.0000 0.53172  0.02891  0.25000  Biso   1.000  V
  V22      1.0000 0.99449  0.94538  0.83556  Biso   1.000  V
  O85      1.0000 0.07120  0.99690  0.89720  Biso   1.000  O
  O86      1.0000 0.89500  0.01220  0.81740  Biso   1.000  O
  O87      1.0000 0.12540  0.89800  0.83050  Biso   1.000  O
  V23      1.0000 0.20344  0.03279  0.92935  Biso   1.000  V
  V24      1.0000 0.27818  0.89182  0.83508  Biso   1.000  V
  O88      1.0000 0.34070  0.07400  0.92650  Biso   1.000  O
  O89      1.0000 0.13570  0.11300  0.92510  Biso   1.000  O
  O90      1.0000 0.22540  0.06890  0.81690  Biso   1.000  O
  O91      1.0000 0.27210  0.96020  0.89650  Biso   1.000  O
  O92      1.0000 0.00730  0.11940  0.81600  Biso   1.000  O
  O93      1.0000 0.42970  0.91120  0.81710  Biso   1.000  O
  V25      1.0000 0.39184  0.11270  0.84414  Biso   1.000  V
  V26      1.0000 0.13440  0.16129  0.84356  Biso   1.000  V
  O94      1.0000 0.28570  0.17710  0.85870  Biso   1.000  O
  O95      1.0000 0.45000  0.03460  0.81710  Biso   1.000  O
  W16      1.0000 0.99449  0.94538  0.66444  Biso   1.000  W
  W17      1.0000 0.20344  0.03279  0.57065  Biso   1.000  W
  W18      1.0000 0.27818  0.89182  0.66492  Biso   1.000  W
  W19      1.0000 0.39184  0.11270  0.65586  Biso   1.000  W
  W20      1.0000 0.13440  0.16129  0.65644  Biso   1.000  W
  O96      1.0000 0.07120  0.99690  0.60280  Biso   1.000  O
  O97      1.0000 0.89500  0.01220  0.68260  Biso   1.000  O
  O98      1.0000 0.12540  0.89800  0.66950  Biso   1.000  O
  O99      1.0000 0.34070  0.07400  0.57350  Biso   1.000  O
  O100     1.0000 0.13570  0.11300  0.57490  Biso   1.000  O
  O101     1.0000 0.22540  0.06890  0.68310  Biso   1.000  O
  O102     1.0000 0.27210  0.96020  0.60350  Biso   1.000  O
  O103     1.0000 0.00730  0.11940  0.68400  Biso   1.000  O
  O104     1.0000 0.42970  0.91120  0.68290  Biso   1.000  O
  O105     1.0000 0.28570  0.17710  0.64130  Biso   1.000  O
  O106     1.0000 0.45000  0.03460  0.68290  Biso   1.000  O
  O107     1.0000 0.07570  0.00540  0.75000  Biso   1.000  O
  O108     1.0000 0.95080  0.91070  0.75000  Biso   1.000  O
  V27      1.0000 0.92559  0.07365  0.75000  Biso   1.000  V
  P4       1.0000 0.20070  0.02790  0.75000  Biso   1.000  P
  O109     1.0000 0.27700  0.84820  0.75000  Biso   1.000  O
  O110     1.0000 0.27930  0.96640  0.75000  Biso   1.000  O
  O111     1.0000 0.39830  0.13410  0.75000  Biso   1.000  O
  O112     1.0000 0.15540  0.18000  0.75000  Biso   1.000  O
  V28      1.0000 0.46828  0.97109  0.75000  Biso   1.000  V
  Ag1      1.0000 0.90564  0.68934  0.03095  Biso   1.000  Ag
  N1       1.0000 0.07370  0.67860  0.99520  Biso   1.000  N
  N2       1.0000 0.72790  0.69200  0.04360  Biso   1.000  N
  Ag2      1.0000 0.39792  0.76485  0.07500  Biso   1.000  Ag
  N3       1.0000 0.11100  0.62520  0.96610  Biso   1.000  N
  C1       1.0000 0.15760  0.71730  0.98850  Biso   1.000  C
  N4       1.0000 0.24120  0.69190  0.95800  Biso   1.000  N
  N5       1.0000 0.54920  0.70840  0.05630  Biso   1.000  N
  C2       1.0000 0.20990  0.63340  0.94720  Biso   1.000  C
  C3       1.0000 0.64280  0.72500  0.02430  Biso   1.000  C
  C4       1.0000 0.57790  0.66050  0.09530  Biso   1.000  C
  H1       1.0000 0.25380  0.60260  0.92840  Biso   1.000  H
  N6       1.0000 0.68710  0.65180  0.08880  Biso   1.000  N
  H2       1.0000 0.53130  0.63700  0.12240  Biso   1.000  H
  Ag3      1.0000 0.90564  0.81066  0.96905  Biso   1.000  Ag
  N7       1.0000 0.07370  0.82140  0.00480  Biso   1.000  N
  N8       1.0000 0.72790  0.80800  0.95640  Biso   1.000  N
  Ag4      1.0000 0.39792  0.73515  0.92500  Biso   1.000  Ag
  N9       1.0000 0.11100  0.87480  0.03390  Biso   1.000  N
  C5       1.0000 0.15760  0.78270  0.01150  Biso   1.000  C
  N10      1.0000 0.24120  0.80810  0.04200  Biso   1.000  N
  N11      1.0000 0.54920  0.79160  0.94370  Biso   1.000  N
  C6       1.0000 0.20990  0.86660  0.05280  Biso   1.000  C
  C7       1.0000 0.64280  0.77500  0.97570  Biso   1.000  C
  C8       1.0000 0.57790  0.83950  0.90470  Biso   1.000  C
  H3       1.0000 0.25380  0.89740  0.07160  Biso   1.000  H
  N12      1.0000 0.68710  0.84820  0.91120  Biso   1.000  N
  H4       1.0000 0.53130  0.86300  0.87760  Biso   1.000  H
  Ag5      1.0000 0.09436  0.31066  0.53095  Biso   1.000  Ag
  N13      1.0000 0.92630  0.32140  0.49520  Biso   1.000  N
  N14      1.0000 0.27210  0.30800  0.54360  Biso   1.000  N
  Ag6      1.0000 0.60208  0.23515  0.57500  Biso   1.000  Ag
  N15      1.0000 0.88900  0.37480  0.46610  Biso   1.000  N
  C9       1.0000 0.84240  0.28270  0.48850  Biso   1.000  C
  N16      1.0000 0.75880  0.30810  0.45800  Biso   1.000  N
  N17      1.0000 0.45080  0.29160  0.55630  Biso   1.000  N
  C10      1.0000 0.79010  0.36660  0.44720  Biso   1.000  C
  C11      1.0000 0.35720  0.27500  0.52430  Biso   1.000  C
  C12      1.0000 0.42210  0.33950  0.59530  Biso   1.000  C
  H5       1.0000 0.74620  0.39740  0.42840  Biso   1.000  H
  N18      1.0000 0.31290  0.34820  0.58880  Biso   1.000  N
  H6       1.0000 0.46870  0.36300  0.62240  Biso   1.000  H
  Ag7      1.0000 0.09436  0.18934  0.46905  Biso   1.000  Ag
  N19      1.0000 0.92630  0.17860  0.50480  Biso   1.000  N
  N20      1.0000 0.27210  0.19200  0.45640  Biso   1.000  N
  Ag8      1.0000 0.60208  0.26485  0.42500  Biso   1.000  Ag
  N21      1.0000 0.88900  0.12520  0.53390  Biso   1.000  N
  C13      1.0000 0.84240  0.21730  0.51150  Biso   1.000  C
  N22      1.0000 0.75880  0.19190  0.54200  Biso   1.000  N
  N23      1.0000 0.45080  0.20840  0.44370  Biso   1.000  N
  C14      1.0000 0.79010  0.13340  0.55280  Biso   1.000  C
  C15      1.0000 0.35720  0.22500  0.47570  Biso   1.000  C
  C16      1.0000 0.42210  0.16050  0.40470  Biso   1.000  C
  H7       1.0000 0.74620  0.10260  0.57160  Biso   1.000  H
  N24      1.0000 0.31290  0.15180  0.41120  Biso   1.000  N
  H8       1.0000 0.46870  0.13700  0.37760  Biso   1.000  H
  Ag9      1.0000 0.09436  0.31066  0.96905  Biso   1.000  Ag
  N25      1.0000 0.92630  0.32140  0.00480  Biso   1.000  N
  N26      1.0000 0.27210  0.30800  0.95640  Biso   1.000  N
  Ag10     1.0000 0.60208  0.23515  0.92500  Biso   1.000  Ag
  N27      1.0000 0.88900  0.37480  0.03390  Biso   1.000  N
  C17      1.0000 0.84240  0.28270  0.01150  Biso   1.000  C
  N28      1.0000 0.75880  0.30810  0.04200  Biso   1.000  N
  N29      1.0000 0.45080  0.29160  0.94370  Biso   1.000  N
  C18      1.0000 0.79010  0.36660  0.05280  Biso   1.000  C
  C19      1.0000 0.35720  0.27500  0.97570  Biso   1.000  C
  C20      1.0000 0.42210  0.33950  0.90470  Biso   1.000  C
  H9       1.0000 0.74620  0.39740  0.07160  Biso   1.000  H
  N30      1.0000 0.31290  0.34820  0.91120  Biso   1.000  N
  H10      1.0000 0.46870  0.36300  0.87760  Biso   1.000  H
  Ag11     1.0000 0.09436  0.18934  0.03095  Biso   1.000  Ag
  N31      1.0000 0.92630  0.17860  0.99520  Biso   1.000  N
  N32      1.0000 0.27210  0.19200  0.04360  Biso   1.000  N
  Ag12     1.0000 0.60208  0.26485  0.07500  Biso   1.000  Ag
  N33      1.0000 0.88900  0.12520  0.96610  Biso   1.000  N
  C21      1.0000 0.84240  0.21730  0.98850  Biso   1.000  C
  N34      1.0000 0.75880  0.19190  0.95800  Biso   1.000  N
  N35      1.0000 0.45080  0.20840  0.05630  Biso   1.000  N
  C22      1.0000 0.79010  0.13340  0.94720  Biso   1.000  C
  C23      1.0000 0.35720  0.22500  0.02430  Biso   1.000  C
  C24      1.0000 0.42210  0.16050  0.09530  Biso   1.000  C
  H11      1.0000 0.74620  0.10260  0.92840  Biso   1.000  H
  N36      1.0000 0.31290  0.15180  0.08880  Biso   1.000  N
  H12      1.0000 0.46870  0.13700  0.12240  Biso   1.000  H
  Ag13     1.0000 0.90564  0.68934  0.46905  Biso   1.000  Ag
  N37      1.0000 0.07370  0.67860  0.50480  Biso   1.000  N
  N38      1.0000 0.72790  0.69200  0.45640  Biso   1.000  N
  Ag14     1.0000 0.39792  0.76485  0.42500  Biso   1.000  Ag
  N39      1.0000 0.11100  0.62520  0.53390  Biso   1.000  N
  C25      1.0000 0.15760  0.71730  0.51150  Biso   1.000  C
  N40      1.0000 0.24120  0.69190  0.54200  Biso   1.000  N
  N41      1.0000 0.54920  0.70840  0.44370  Biso   1.000  N
  C26      1.0000 0.20990  0.63340  0.55280  Biso   1.000  C
  C27      1.0000 0.64280  0.72500  0.47570  Biso   1.000  C
  C28      1.0000 0.57790  0.66050  0.40470  Biso   1.000  C
  H13      1.0000 0.25380  0.60260  0.57160  Biso   1.000  H
  N42      1.0000 0.68710  0.65180  0.41120  Biso   1.000  N
  H14      1.0000 0.53130  0.63700  0.37760  Biso   1.000  H
  Ag15     1.0000 0.90564  0.81066  0.53095  Biso   1.000  Ag
  N43      1.0000 0.07370  0.82140  0.49520  Biso   1.000  N
  N44      1.0000 0.72790  0.80800  0.54360  Biso   1.000  N
  Ag16     1.0000 0.39792  0.73515  0.57500  Biso   1.000  Ag
  N45      1.0000 0.11100  0.87480  0.46610  Biso   1.000  N
  C29      1.0000 0.15760  0.78270  0.48850  Biso   1.000  C
  N46      1.0000 0.24120  0.80810  0.45800  Biso   1.000  N
  N47      1.0000 0.54920  0.79160  0.55630  Biso   1.000  N
  C30      1.0000 0.20990  0.86660  0.44720  Biso   1.000  C
  C31      1.0000 0.64280  0.77500  0.52430  Biso   1.000  C
  C32      1.0000 0.57790  0.83950  0.59530  Biso   1.000  C
  H15      1.0000 0.25380  0.89740  0.42840  Biso   1.000  H
  N48      1.0000 0.68710  0.84820  0.58880  Biso   1.000  N
  H16      1.0000 0.53130  0.86300  0.62240  Biso   1.000  H
