data_image0
_cell_length_a       4.798
_cell_length_b       21.341
_cell_length_c       5.406
_cell_angle_alpha    90
_cell_angle_beta     90.01
_cell_angle_gamma    90

_symmetry_space_group_name_H-M    "P 1"
_symmetry_int_tables_number       1

loop_
  _symmetry_equiv_pos_as_xyz
  'x, y, z'

loop_
  _atom_site_label
  _atom_site_occupancy
  _atom_site_fract_x
  _atom_site_fract_y
  _atom_site_fract_z
  _atom_site_thermal_displace_type
  _atom_site_B_iso_or_equiv
  _atom_site_type_symbol
  Cl1      1.0000 0.80990  0.10703  0.54090  Biso   1.000  Cl
  O1       1.0000 0.10430  0.10630  0.52930  Biso   1.000  O
  O2       1.0000 0.74610  0.15519  0.37070  Biso   1.000  O
  O3       1.0000 0.74150  0.04717  0.45990  Biso   1.000  O
  O4       1.0000 0.75550  0.12097  0.78950  Biso   1.000  O
  Cl2      1.0000 0.70010  0.10694  0.54110  Biso   1.000  Cl
  O5       1.0000 0.40110  0.10660  0.52750  Biso   1.000  O
  Cl3      1.0000 0.19010  0.60703  0.45910  Biso   1.000  Cl
  O6       1.0000 0.89570  0.60630  0.47070  Biso   1.000  O
  O7       1.0000 0.25390  0.65519  0.62930  Biso   1.000  O
  O8       1.0000 0.25850  0.54717  0.54010  Biso   1.000  O
  O9       1.0000 0.24450  0.62097  0.21050  Biso   1.000  O
  Cl4      1.0000 0.29990  0.60694  0.45890  Biso   1.000  Cl
  O10      1.0000 0.59890  0.60660  0.47250  Biso   1.000  O
  Cl5      1.0000 0.19010  0.89297  0.45910  Biso   1.000  Cl
  O11      1.0000 0.89570  0.89370  0.47070  Biso   1.000  O
  O12      1.0000 0.25390  0.84481  0.62930  Biso   1.000  O
  O13      1.0000 0.25850  0.95283  0.54010  Biso   1.000  O
  O14      1.0000 0.24450  0.87903  0.21050  Biso   1.000  O
  Cl6      1.0000 0.29990  0.89306  0.45890  Biso   1.000  Cl
  O15      1.0000 0.59890  0.89340  0.47250  Biso   1.000  O
  Cl7      1.0000 0.80990  0.39297  0.54090  Biso   1.000  Cl
  O16      1.0000 0.10430  0.39370  0.52930  Biso   1.000  O
  O17      1.0000 0.74610  0.34481  0.37070  Biso   1.000  O
  O18      1.0000 0.74150  0.45283  0.45990  Biso   1.000  O
  O19      1.0000 0.75550  0.37903  0.78950  Biso   1.000  O
  Cl8      1.0000 0.70010  0.39306  0.54110  Biso   1.000  Cl
  O20      1.0000 0.40110  0.39340  0.52750  Biso   1.000  O
  Ag1      1.0000 0.25109  0.35970  0.03674  Biso   1.000  Ag
  Ag2      1.0000 0.25109  0.14030  0.03674  Biso   1.000  Ag
  C1       1.0000 0.24520  0.25000  0.06080  Biso   1.000  C
  C2       1.0000 0.24280  0.25000  0.83660  Biso   1.000  C
  Ag3      1.0000 0.24981  0.25000  0.44673  Biso   1.000  Ag
  Ag4      1.0000 0.74976  0.25000  0.88780  Biso   1.000  Ag
  Ag5      1.0000 0.74891  0.85970  0.96326  Biso   1.000  Ag
  Ag6      1.0000 0.74891  0.64030  0.96326  Biso   1.000  Ag
  C3       1.0000 0.75480  0.75000  0.93920  Biso   1.000  C
  C4       1.0000 0.75720  0.75000  0.16340  Biso   1.000  C
  Ag7      1.0000 0.75019  0.75000  0.55327  Biso   1.000  Ag
  Ag8      1.0000 0.25024  0.75000  0.11220  Biso   1.000  Ag
