data_image0
_cell_length_a       9.8935
_cell_length_b       11.0196
_cell_length_c       12.5775
_cell_angle_alpha    90
_cell_angle_beta     106.432
_cell_angle_gamma    90

_symmetry_space_group_name_H-M    "P 1"
_symmetry_int_tables_number       1

loop_
  _symmetry_equiv_pos_as_xyz
  'x, y, z'

loop_
  _atom_site_label
  _atom_site_occupancy
  _atom_site_fract_x
  _atom_site_fract_y
  _atom_site_fract_z
  _atom_site_thermal_displace_type
  _atom_site_B_iso_or_equiv
  _atom_site_type_symbol
  Cu1      1.0000 0.92240  0.43220  0.42680  Biso   1.000  Cu
  N1       1.0000 0.95370  0.46200  0.26850  Biso   1.000  N
  C1       1.0000 0.10310  0.37290  0.52160  Biso   1.000  C
  C2       1.0000 0.74170  0.35230  0.38550  Biso   1.000  C
  N2       1.0000 0.63910  0.30420  0.34300  Biso   1.000  N
  C3       1.0000 0.99090  0.49140  0.05460  Biso   1.000  C
  C4       1.0000 0.90320  0.40150  0.07970  Biso   1.000  C
  C5       1.0000 0.88850  0.39150  0.18260  Biso   1.000  C
  N3       1.0000 0.19410  0.31120  0.55730  Biso   1.000  N
  C6       1.0000 0.05680  0.56710  0.14430  Biso   1.000  C
  C7       1.0000 0.03750  0.54640  0.24710  Biso   1.000  C
  H1       1.0000 0.85523  0.34593  0.02265  Biso   1.000  H
  H2       1.0000 0.82463  0.33058  0.19399  Biso   1.000  H
  H3       1.0000 0.11468  0.63280  0.13250  Biso   1.000  H
  H4       1.0000 0.09082  0.59776  0.30573  Biso   1.000  H
  Cu2      1.0000 0.07760  0.56780  0.57320  Biso   1.000  Cu
  N4       1.0000 0.04630  0.53800  0.73150  Biso   1.000  N
  C8       1.0000 0.89690  0.62710  0.47840  Biso   1.000  C
  C9       1.0000 0.25830  0.64770  0.61450  Biso   1.000  C
  N5       1.0000 0.36090  0.69580  0.65700  Biso   1.000  N
  C10      1.0000 0.00910  0.50860  0.94540  Biso   1.000  C
  C11      1.0000 0.09680  0.59850  0.92030  Biso   1.000  C
  C12      1.0000 0.11150  0.60850  0.81740  Biso   1.000  C
  N6       1.0000 0.80590  0.68880  0.44270  Biso   1.000  N
  C13      1.0000 0.94320  0.43290  0.85570  Biso   1.000  C
  C14      1.0000 0.96250  0.45360  0.75290  Biso   1.000  C
  H5       1.0000 0.14477  0.65407  0.97735  Biso   1.000  H
  H6       1.0000 0.17537  0.66942  0.80601  Biso   1.000  H
  H7       1.0000 0.88532  0.36720  0.86750  Biso   1.000  H
  H8       1.0000 0.90918  0.40224  0.69427  Biso   1.000  H
  Cu3      1.0000 0.07760  0.93220  0.07320  Biso   1.000  Cu
  N7       1.0000 0.04630  0.96200  0.23150  Biso   1.000  N
  C15      1.0000 0.89690  0.87290  0.97840  Biso   1.000  C
  C16      1.0000 0.25830  0.85230  0.11450  Biso   1.000  C
  N8       1.0000 0.36090  0.80420  0.15700  Biso   1.000  N
  C17      1.0000 0.00910  0.99140  0.44540  Biso   1.000  C
  C18      1.0000 0.09680  0.90150  0.42030  Biso   1.000  C
  C19      1.0000 0.11150  0.89150  0.31740  Biso   1.000  C
  N9       1.0000 0.80590  0.81120  0.94270  Biso   1.000  N
  C20      1.0000 0.94320  0.06710  0.35570  Biso   1.000  C
  C21      1.0000 0.96250  0.04640  0.25290  Biso   1.000  C
  H9       1.0000 0.14477  0.84593  0.47735  Biso   1.000  H
  H10      1.0000 0.17537  0.83058  0.30601  Biso   1.000  H
  H11      1.0000 0.88532  0.13280  0.36750  Biso   1.000  H
  H12      1.0000 0.90918  0.09776  0.19427  Biso   1.000  H
  Cu4      1.0000 0.92240  0.06780  0.92680  Biso   1.000  Cu
  N10      1.0000 0.95370  0.03800  0.76850  Biso   1.000  N
  C22      1.0000 0.10310  0.12710  0.02160  Biso   1.000  C
  C23      1.0000 0.74170  0.14770  0.88550  Biso   1.000  C
  N11      1.0000 0.63910  0.19580  0.84300  Biso   1.000  N
  C24      1.0000 0.99090  0.00860  0.55460  Biso   1.000  C
  C25      1.0000 0.90320  0.09850  0.57970  Biso   1.000  C
  C26      1.0000 0.88850  0.10850  0.68260  Biso   1.000  C
  N12      1.0000 0.19410  0.18880  0.05730  Biso   1.000  N
  C27      1.0000 0.05680  0.93290  0.64430  Biso   1.000  C
  C28      1.0000 0.03750  0.95360  0.74710  Biso   1.000  C
  H13      1.0000 0.85523  0.15407  0.52265  Biso   1.000  H
  H14      1.0000 0.82463  0.16942  0.69399  Biso   1.000  H
  H15      1.0000 0.11468  0.86720  0.63250  Biso   1.000  H
  H16      1.0000 0.09082  0.90224  0.80573  Biso   1.000  H
