data_image0
_cell_length_a       13.6081
_cell_length_b       9.9487
_cell_length_c       9.4287
_cell_angle_alpha    90
_cell_angle_beta     90
_cell_angle_gamma    90

_symmetry_space_group_name_H-M    "P 1"
_symmetry_int_tables_number       1

loop_
  _symmetry_equiv_pos_as_xyz
  'x, y, z'

loop_
  _atom_site_label
  _atom_site_occupancy
  _atom_site_fract_x
  _atom_site_fract_y
  _atom_site_fract_z
  _atom_site_thermal_displace_type
  _atom_site_B_iso_or_equiv
  _atom_site_type_symbol
  C1       1.0000 0.06590  0.24700  0.24930  Biso   1.000  C
  H1       1.0000 0.11360  0.24610  0.17860  Biso   1.000  H
  C2       1.0000 0.06500  0.34940  0.34670  Biso   1.000  C
  H2       1.0000 0.11210  0.41690  0.34110  Biso   1.000  H
  C3       1.0000 0.92940  0.25750  0.45390  Biso   1.000  C
  H3       1.0000 0.88080  0.25860  0.52320  Biso   1.000  H
  C4       1.0000 0.93030  0.15280  0.35350  Biso   1.000  C
  H4       1.0000 0.88190  0.08680  0.35730  Biso   1.000  H
  N1       1.0000 0.99800  0.14640  0.25470  Biso   1.000  N
  N2       1.0000 0.99560  0.35370  0.45220  Biso   1.000  N
  C5       1.0000 0.93410  0.75300  0.24930  Biso   1.000  C
  H5       1.0000 0.88640  0.75390  0.17860  Biso   1.000  H
  C6       1.0000 0.93500  0.65060  0.34670  Biso   1.000  C
  H6       1.0000 0.88790  0.58310  0.34110  Biso   1.000  H
  C7       1.0000 0.07060  0.74250  0.45390  Biso   1.000  C
  H7       1.0000 0.11920  0.74140  0.52320  Biso   1.000  H
  C8       1.0000 0.06970  0.84720  0.35350  Biso   1.000  C
  H8       1.0000 0.11810  0.91320  0.35730  Biso   1.000  H
  N3       1.0000 0.00200  0.85360  0.25470  Biso   1.000  N
  N4       1.0000 0.00440  0.64630  0.45220  Biso   1.000  N
  C9       1.0000 0.06590  0.25300  0.74930  Biso   1.000  C
  H9       1.0000 0.11360  0.25390  0.67860  Biso   1.000  H
  C10      1.0000 0.06500  0.15060  0.84670  Biso   1.000  C
  H10      1.0000 0.11210  0.08310  0.84110  Biso   1.000  H
  C11      1.0000 0.92940  0.24250  0.95390  Biso   1.000  C
  H11      1.0000 0.88080  0.24140  0.02320  Biso   1.000  H
  C12      1.0000 0.93030  0.34720  0.85350  Biso   1.000  C
  H12      1.0000 0.88190  0.41320  0.85730  Biso   1.000  H
  N5       1.0000 0.99800  0.35360  0.75470  Biso   1.000  N
  N6       1.0000 0.99560  0.14630  0.95220  Biso   1.000  N
  C13      1.0000 0.93410  0.74700  0.74930  Biso   1.000  C
  H13      1.0000 0.88640  0.74610  0.67860  Biso   1.000  H
  C14      1.0000 0.93500  0.84940  0.84670  Biso   1.000  C
  H14      1.0000 0.88790  0.91690  0.84110  Biso   1.000  H
  C15      1.0000 0.07060  0.75750  0.95390  Biso   1.000  C
  H15      1.0000 0.11920  0.75860  0.02320  Biso   1.000  H
  C16      1.0000 0.06970  0.65280  0.85350  Biso   1.000  C
  H16      1.0000 0.11810  0.58680  0.85730  Biso   1.000  H
  N7       1.0000 0.00200  0.64640  0.75470  Biso   1.000  N
  N8       1.0000 0.00440  0.85370  0.95220  Biso   1.000  N
  Cu1      1.0000 0.00000  0.00000  0.10341  Biso   1.000  Cu
  Cu2      1.0000 0.00000  0.50000  0.60341  Biso   1.000  Cu
  C17      1.0000 0.56590  0.74700  0.74930  Biso   1.000  C
  H17      1.0000 0.61360  0.74610  0.67860  Biso   1.000  H
  C18      1.0000 0.56500  0.84940  0.84670  Biso   1.000  C
  H18      1.0000 0.61210  0.91690  0.84110  Biso   1.000  H
  C19      1.0000 0.42940  0.75750  0.95390  Biso   1.000  C
  H19      1.0000 0.38080  0.75860  0.02320  Biso   1.000  H
  C20      1.0000 0.43030  0.65280  0.85350  Biso   1.000  C
  H20      1.0000 0.38190  0.58680  0.85730  Biso   1.000  H
  N9       1.0000 0.49800  0.64640  0.75470  Biso   1.000  N
  N10      1.0000 0.49560  0.85370  0.95220  Biso   1.000  N
  C21      1.0000 0.43410  0.25300  0.74930  Biso   1.000  C
  H21      1.0000 0.38640  0.25390  0.67860  Biso   1.000  H
  C22      1.0000 0.43500  0.15060  0.84670  Biso   1.000  C
  H22      1.0000 0.38790  0.08310  0.84110  Biso   1.000  H
  C23      1.0000 0.57060  0.24250  0.95390  Biso   1.000  C
  H23      1.0000 0.61920  0.24140  0.02320  Biso   1.000  H
  C24      1.0000 0.56970  0.34720  0.85350  Biso   1.000  C
  H24      1.0000 0.61810  0.41320  0.85730  Biso   1.000  H
  N11      1.0000 0.50200  0.35360  0.75470  Biso   1.000  N
  N12      1.0000 0.50440  0.14630  0.95220  Biso   1.000  N
  C25      1.0000 0.56590  0.75300  0.24930  Biso   1.000  C
  H25      1.0000 0.61360  0.75390  0.17860  Biso   1.000  H
  C26      1.0000 0.56500  0.65060  0.34670  Biso   1.000  C
  H26      1.0000 0.61210  0.58310  0.34110  Biso   1.000  H
  C27      1.0000 0.42940  0.74250  0.45390  Biso   1.000  C
  H27      1.0000 0.38080  0.74140  0.52320  Biso   1.000  H
  C28      1.0000 0.43030  0.84720  0.35350  Biso   1.000  C
  H28      1.0000 0.38190  0.91320  0.35730  Biso   1.000  H
  N13      1.0000 0.49800  0.85360  0.25470  Biso   1.000  N
  N14      1.0000 0.49560  0.64630  0.45220  Biso   1.000  N
  C29      1.0000 0.43410  0.24700  0.24930  Biso   1.000  C
  H29      1.0000 0.38640  0.24610  0.17860  Biso   1.000  H
  C30      1.0000 0.43500  0.34940  0.34670  Biso   1.000  C
  H30      1.0000 0.38790  0.41690  0.34110  Biso   1.000  H
  C31      1.0000 0.57060  0.25750  0.45390  Biso   1.000  C
  H31      1.0000 0.61920  0.25860  0.52320  Biso   1.000  H
  C32      1.0000 0.56970  0.15280  0.35350  Biso   1.000  C
  H32      1.0000 0.61810  0.08680  0.35730  Biso   1.000  H
  N15      1.0000 0.50200  0.14640  0.25470  Biso   1.000  N
  N16      1.0000 0.50440  0.35370  0.45220  Biso   1.000  N
  Cu3      1.0000 0.50000  0.50000  0.60341  Biso   1.000  Cu
  Cu4      1.0000 0.50000  0.00000  0.10341  Biso   1.000  Cu
