data_image0
_cell_length_a       7.711
_cell_length_b       18.586
_cell_length_c       20.928
_cell_angle_alpha    90
_cell_angle_beta     90
_cell_angle_gamma    90

_symmetry_space_group_name_H-M    "P 1"
_symmetry_int_tables_number       1

loop_
  _symmetry_equiv_pos_as_xyz
  'x, y, z'

loop_
  _atom_site_label
  _atom_site_occupancy
  _atom_site_fract_x
  _atom_site_fract_y
  _atom_site_fract_z
  _atom_site_thermal_displace_type
  _atom_site_B_iso_or_equiv
  _atom_site_type_symbol
  Ag1      1.0000 0.13470  0.81007  0.76038  Biso   1.000  Ag
  Ag2      1.0000 0.90048  0.89835  0.84258  Biso   1.000  Ag
  Ag3      1.0000 0.29688  0.90883  0.85384  Biso   1.000  Ag
  Ag4      1.0000 0.76342  0.58151  0.66177  Biso   1.000  Ag
  Ag5      1.0000 0.09550  0.59489  0.47139  Biso   1.000  Ag
  Ag6      1.0000 0.97850  0.68442  0.57555  Biso   1.000  Ag
  Ag7      1.0000 0.71648  0.60521  0.49231  Biso   1.000  Ag
  N1       1.0000 0.03760  0.34290  0.69410  Biso   1.000  N
  C1       1.0000 0.09170  0.12850  0.76290  Biso   1.000  C
  H1       1.0000 0.13260  0.12100  0.80410  Biso   1.000  H
  C2       1.0000 0.01040  0.20960  0.67720  Biso   1.000  C
  N2       1.0000 0.07030  0.19820  0.74000  Biso   1.000  N
  C3       1.0000 0.99370  0.07970  0.65890  Biso   1.000  C
  H2       1.0000 0.97000  0.03970  0.63370  Biso   1.000  H
  C4       1.0000 0.95880  0.42860  0.60870  Biso   1.000  C
  C5       1.0000 0.02130  0.41350  0.67180  Biso   1.000  C
  H3       1.0000 0.04820  0.45090  0.69960  Biso   1.000  H
  C6       1.0000 0.99670  0.28450  0.65360  Biso   1.000  C
  C7       1.0000 0.92130  0.56350  0.55840  Biso   1.000  C
  C8       1.0000 0.93600  0.50190  0.58520  Biso   1.000  C
  C9       1.0000 0.05770  0.06700  0.72150  Biso   1.000  C
  C10      1.0000 0.93340  0.29710  0.58820  Biso   1.000  C
  C11      1.0000 0.91790  0.36880  0.56710  Biso   1.000  C
  H4       1.0000 0.88490  0.37860  0.52530  Biso   1.000  H
  C12      1.0000 0.89300  0.23530  0.55120  Biso   1.000  C
  H5       1.0000 0.86410  0.24220  0.50850  Biso   1.000  H
  C13      1.0000 0.96740  0.15190  0.63370  Biso   1.000  C
  C14      1.0000 0.90900  0.16670  0.57130  Biso   1.000  C
  H6       1.0000 0.86640  0.12940  0.54610  Biso   1.000  H
  C15      1.0000 0.09370  0.99400  0.74400  Biso   1.000  C
  C16      1.0000 0.11920  0.93170  0.76920  Biso   1.000  C
  Ag8      1.0000 0.12490  0.31112  0.80145  Biso   1.000  Ag
  Ag9      1.0000 0.06900  0.81240  0.75390  Biso   1.000  Ag
  C17      1.0000 0.10400  0.25460  0.77740  Biso   1.000  C
  Ag10     1.0000 0.88110  0.18496  0.52484  Biso   1.000  Ag
  Ag11     1.0000 0.90290  0.68710  0.56880  Biso   1.000  Ag
  C18      1.0000 0.08700  0.32500  0.75800  Biso   1.000  C
  Ag12     1.0000 0.63470  0.68993  0.76038  Biso   1.000  Ag
  Ag13     1.0000 0.40048  0.60165  0.84258  Biso   1.000  Ag
  Ag14     1.0000 0.79688  0.59117  0.85384  Biso   1.000  Ag
  Ag15     1.0000 0.26342  0.91849  0.66177  Biso   1.000  Ag
  Ag16     1.0000 0.59550  0.90511  0.47139  Biso   1.000  Ag
  Ag17     1.0000 0.47850  0.81558  0.57555  Biso   1.000  Ag
  Ag18     1.0000 0.21648  0.89479  0.49231  Biso   1.000  Ag
  N3       1.0000 0.53760  0.15710  0.69410  Biso   1.000  N
  C19      1.0000 0.59170  0.37150  0.76290  Biso   1.000  C
  H7       1.0000 0.63260  0.37900  0.80410  Biso   1.000  H
  C20      1.0000 0.51040  0.29040  0.67720  Biso   1.000  C
  N4       1.0000 0.57030  0.30180  0.74000  Biso   1.000  N
  C21      1.0000 0.49370  0.42030  0.65890  Biso   1.000  C
  H8       1.0000 0.47000  0.46030  0.63370  Biso   1.000  H
  C22      1.0000 0.45880  0.07140  0.60870  Biso   1.000  C
  C23      1.0000 0.52130  0.08650  0.67180  Biso   1.000  C
  H9       1.0000 0.54820  0.04910  0.69960  Biso   1.000  H
  C24      1.0000 0.49670  0.21550  0.65360  Biso   1.000  C
  C25      1.0000 0.42130  0.93650  0.55840  Biso   1.000  C
  C26      1.0000 0.43600  0.99810  0.58520  Biso   1.000  C
  C27      1.0000 0.55770  0.43300  0.72150  Biso   1.000  C
  C28      1.0000 0.43340  0.20290  0.58820  Biso   1.000  C
  C29      1.0000 0.41790  0.13120  0.56710  Biso   1.000  C
  H10      1.0000 0.38490  0.12140  0.52530  Biso   1.000  H
  C30      1.0000 0.39300  0.26470  0.55120  Biso   1.000  C
  H11      1.0000 0.36410  0.25780  0.50850  Biso   1.000  H
  C31      1.0000 0.46740  0.34810  0.63370  Biso   1.000  C
  C32      1.0000 0.40900  0.33330  0.57130  Biso   1.000  C
  H12      1.0000 0.36640  0.37060  0.54610  Biso   1.000  H
  C33      1.0000 0.59370  0.50600  0.74400  Biso   1.000  C
  C34      1.0000 0.61920  0.56830  0.76920  Biso   1.000  C
  Ag19     1.0000 0.62490  0.18888  0.80145  Biso   1.000  Ag
  Ag20     1.0000 0.56900  0.68760  0.75390  Biso   1.000  Ag
  C35      1.0000 0.60400  0.24540  0.77740  Biso   1.000  C
  Ag21     1.0000 0.38110  0.31504  0.52484  Biso   1.000  Ag
  Ag22     1.0000 0.40290  0.81290  0.56880  Biso   1.000  Ag
  C36      1.0000 0.58700  0.17500  0.75800  Biso   1.000  C
  Ag23     1.0000 0.86530  0.18993  0.26038  Biso   1.000  Ag
  Ag24     1.0000 0.09952  0.10165  0.34258  Biso   1.000  Ag
  Ag25     1.0000 0.70312  0.09117  0.35384  Biso   1.000  Ag
  Ag26     1.0000 0.23658  0.41849  0.16177  Biso   1.000  Ag
  Ag27     1.0000 0.90450  0.40511  0.97139  Biso   1.000  Ag
  Ag28     1.0000 0.02150  0.31558  0.07555  Biso   1.000  Ag
  Ag29     1.0000 0.28352  0.39479  0.99231  Biso   1.000  Ag
  N5       1.0000 0.96240  0.65710  0.19410  Biso   1.000  N
  C37      1.0000 0.90830  0.87150  0.26290  Biso   1.000  C
  H13      1.0000 0.86740  0.87900  0.30410  Biso   1.000  H
  C38      1.0000 0.98960  0.79040  0.17720  Biso   1.000  C
  N6       1.0000 0.92970  0.80180  0.24000  Biso   1.000  N
  C39      1.0000 0.00630  0.92030  0.15890  Biso   1.000  C
  H14      1.0000 0.03000  0.96030  0.13370  Biso   1.000  H
  C40      1.0000 0.04120  0.57140  0.10870  Biso   1.000  C
  C41      1.0000 0.97870  0.58650  0.17180  Biso   1.000  C
  H15      1.0000 0.95180  0.54910  0.19960  Biso   1.000  H
  C42      1.0000 0.00330  0.71550  0.15360  Biso   1.000  C
  C43      1.0000 0.07870  0.43650  0.05840  Biso   1.000  C
  C44      1.0000 0.06400  0.49810  0.08520  Biso   1.000  C
  C45      1.0000 0.94230  0.93300  0.22150  Biso   1.000  C
  C46      1.0000 0.06660  0.70290  0.08820  Biso   1.000  C
  C47      1.0000 0.08210  0.63120  0.06710  Biso   1.000  C
  H16      1.0000 0.11510  0.62140  0.02530  Biso   1.000  H
  C48      1.0000 0.10700  0.76470  0.05120  Biso   1.000  C
  H17      1.0000 0.13590  0.75780  0.00850  Biso   1.000  H
  C49      1.0000 0.03260  0.84810  0.13370  Biso   1.000  C
  C50      1.0000 0.09100  0.83330  0.07130  Biso   1.000  C
  H18      1.0000 0.13360  0.87060  0.04610  Biso   1.000  H
  C51      1.0000 0.90630  0.00600  0.24400  Biso   1.000  C
  C52      1.0000 0.88080  0.06830  0.26920  Biso   1.000  C
  Ag30     1.0000 0.87510  0.68888  0.30145  Biso   1.000  Ag
  Ag31     1.0000 0.93100  0.18760  0.25390  Biso   1.000  Ag
  C53      1.0000 0.89600  0.74540  0.27740  Biso   1.000  C
  Ag32     1.0000 0.11890  0.81504  0.02484  Biso   1.000  Ag
  Ag33     1.0000 0.09710  0.31290  0.06880  Biso   1.000  Ag
  C54      1.0000 0.91300  0.67500  0.25800  Biso   1.000  C
  Ag34     1.0000 0.36530  0.31007  0.26038  Biso   1.000  Ag
  Ag35     1.0000 0.59952  0.39835  0.34258  Biso   1.000  Ag
  Ag36     1.0000 0.20312  0.40883  0.35384  Biso   1.000  Ag
  Ag37     1.0000 0.73658  0.08151  0.16177  Biso   1.000  Ag
  Ag38     1.0000 0.40450  0.09489  0.97139  Biso   1.000  Ag
  Ag39     1.0000 0.52150  0.18442  0.07555  Biso   1.000  Ag
  Ag40     1.0000 0.78352  0.10521  0.99231  Biso   1.000  Ag
  N7       1.0000 0.46240  0.84290  0.19410  Biso   1.000  N
  C55      1.0000 0.40830  0.62850  0.26290  Biso   1.000  C
  H19      1.0000 0.36740  0.62100  0.30410  Biso   1.000  H
  C56      1.0000 0.48960  0.70960  0.17720  Biso   1.000  C
  N8       1.0000 0.42970  0.69820  0.24000  Biso   1.000  N
  C57      1.0000 0.50630  0.57970  0.15890  Biso   1.000  C
  H20      1.0000 0.53000  0.53970  0.13370  Biso   1.000  H
  C58      1.0000 0.54120  0.92860  0.10870  Biso   1.000  C
  C59      1.0000 0.47870  0.91350  0.17180  Biso   1.000  C
  H21      1.0000 0.45180  0.95090  0.19960  Biso   1.000  H
  C60      1.0000 0.50330  0.78450  0.15360  Biso   1.000  C
  C61      1.0000 0.57870  0.06350  0.05840  Biso   1.000  C
  C62      1.0000 0.56400  0.00190  0.08520  Biso   1.000  C
  C63      1.0000 0.44230  0.56700  0.22150  Biso   1.000  C
  C64      1.0000 0.56660  0.79710  0.08820  Biso   1.000  C
  C65      1.0000 0.58210  0.86880  0.06710  Biso   1.000  C
  H22      1.0000 0.61510  0.87860  0.02530  Biso   1.000  H
  C66      1.0000 0.60700  0.73530  0.05120  Biso   1.000  C
  H23      1.0000 0.63590  0.74220  0.00850  Biso   1.000  H
  C67      1.0000 0.53260  0.65190  0.13370  Biso   1.000  C
  C68      1.0000 0.59100  0.66670  0.07130  Biso   1.000  C
  H24      1.0000 0.63360  0.62940  0.04610  Biso   1.000  H
  C69      1.0000 0.40630  0.49400  0.24400  Biso   1.000  C
  C70      1.0000 0.38080  0.43170  0.26920  Biso   1.000  C
  Ag41     1.0000 0.37510  0.81112  0.30145  Biso   1.000  Ag
  Ag42     1.0000 0.43100  0.31240  0.25390  Biso   1.000  Ag
  C71      1.0000 0.39600  0.75460  0.27740  Biso   1.000  C
  Ag43     1.0000 0.61890  0.68496  0.02484  Biso   1.000  Ag
  Ag44     1.0000 0.59710  0.18710  0.06880  Biso   1.000  Ag
  C72      1.0000 0.41300  0.82500  0.25800  Biso   1.000  C
