data_image0
_cell_length_a       26.372
_cell_length_b       25.257
_cell_length_c       15.9775
_cell_angle_alpha    90
_cell_angle_beta     103.804
_cell_angle_gamma    90

_symmetry_space_group_name_H-M    "P 1"
_symmetry_int_tables_number       1

loop_
  _symmetry_equiv_pos_as_xyz
  'x, y, z'

loop_
  _atom_site_label
  _atom_site_occupancy
  _atom_site_fract_x
  _atom_site_fract_y
  _atom_site_fract_z
  _atom_site_thermal_displace_type
  _atom_site_B_iso_or_equiv
  _atom_site_type_symbol
  Ag1      1.0000 0.50674  0.31772  0.66166  Biso   1.000  Ag
  Ag2      1.0000 0.38569  0.33295  0.58901  Biso   1.000  Ag
  Ag3      1.0000 0.37956  0.18937  0.67045  Biso   1.000  Ag
  Ag4      1.0000 0.61905  0.34317  0.72918  Biso   1.000  Ag
  Ag5      1.0000 0.59554  0.24071  0.65048  Biso   1.000  Ag
  Ag6      1.0000 0.43683  0.23604  0.54568  Biso   1.000  Ag
  Ag7      1.0000 0.53002  0.19565  0.41704  Biso   1.000  Ag
  Ag8      1.0000 0.41899  0.19146  0.32621  Biso   1.000  Ag
  Ag9      1.0000 0.49778  0.44687  0.53669  Biso   1.000  Ag
  Ag10     1.0000 0.32759  0.43585  0.42649  Biso   1.000  Ag
  Ag11     1.0000 0.32419  0.54006  0.35871  Biso   1.000  Ag
  C1       1.0000 0.42910  0.26430  0.66860  Biso   1.000  C
  C2       1.0000 0.57570  0.27620  0.76370  Biso   1.000  C
  C3       1.0000 0.38730  0.49400  0.42310  Biso   1.000  C
  N1       1.0000 0.42970  0.49470  0.45370  Biso   1.000  N
  N2       1.0000 0.49620  0.18650  0.28320  Biso   1.000  N
  O1       1.0000 0.40650  0.27190  0.40530  Biso   1.000  O
  O2       1.0000 0.37230  0.34710  0.43880  Biso   1.000  O
  C4       1.0000 0.38060  0.31450  0.39080  Biso   1.000  C
  C5       1.0000 0.35840  0.32450  0.29900  Biso   1.000  C
  F1       1.0000 0.37390  0.29560  0.24210  Biso   1.000  F
  F2       1.0000 0.30700  0.32340  0.27410  Biso   1.000  F
  F3       1.0000 0.36910  0.37260  0.27600  Biso   1.000  F
  O3       1.0000 0.36920  0.12570  0.55920  Biso   1.000  O
  O4       1.0000 0.40650  0.16090  0.46580  Biso   1.000  O
  C6       1.0000 0.38040  0.12750  0.49150  Biso   1.000  C
  C7       1.0000 0.36190  0.08090  0.43800  Biso   1.000  C
  F4       1.0000 0.37290  0.08050  0.36180  Biso   1.000  F
  F5       1.0000 0.37700  0.03470  0.47310  Biso   1.000  F
  F6       1.0000 0.31080  0.07530  0.41870  Biso   1.000  F
  O5       1.0000 0.51500  0.12750  0.66810  Biso   1.000  O
  O6       1.0000 0.52150  0.17330  0.55500  Biso   1.000  O
  C8       1.0000 0.52180  0.13300  0.59380  Biso   1.000  C
  C9       1.0000 0.52810  0.08230  0.55170  Biso   1.000  C
  F7       1.0000 0.48620  0.05270  0.52980  Biso   1.000  F
  F8       1.0000 0.54410  0.08730  0.48040  Biso   1.000  F
  F9       1.0000 0.56190  0.04900  0.59760  Biso   1.000  F
  O7       1.0000 0.33800  0.13170  0.73960  Biso   1.000  O
  O8       1.0000 0.63850  0.16540  0.62780  Biso   1.000  O
  C10      1.0000 0.33740  0.13340  0.81380  Biso   1.000  C
  C11      1.0000 0.30760  0.09290  0.84850  Biso   1.000  C
  F10      1.0000 0.25680  0.09850  0.82020  Biso   1.000  F
  F11      1.0000 0.31420  0.08770  0.93260  Biso   1.000  F
  F12      1.0000 0.31550  0.04410  0.82590  Biso   1.000  F
  O9       1.0000 0.64090  0.42760  0.77250  Biso   1.000  O
  O10      1.0000 0.35590  0.41750  0.59040  Biso   1.000  O
  C12      1.0000 0.65050  0.44150  0.84800  Biso   1.000  C
  C13      1.0000 0.67220  0.49550  0.86550  Biso   1.000  C
  F13      1.0000 0.64460  0.52830  0.90100  Biso   1.000  F
  F14      1.0000 0.71820  0.49870  0.91890  Biso   1.000  F
  F15      1.0000 0.67930  0.52380  0.80080  Biso   1.000  F
  O11      1.0000 0.51280  0.35700  0.53250  Biso   1.000  O
  O12      1.0000 0.52510  0.27590  0.49630  Biso   1.000  O
  C14      1.0000 0.52210  0.32300  0.48220  Biso   1.000  C
  C15      1.0000 0.53150  0.34310  0.40290  Biso   1.000  C
  F16      1.0000 0.54210  0.30810  0.34870  Biso   1.000  F
  F17      1.0000 0.49250  0.36940  0.35410  Biso   1.000  F
  F18      1.0000 0.56900  0.37820  0.40820  Biso   1.000  F
  O13      1.0000 0.65910  0.36270  0.61950  Biso   1.000  O
  O14      1.0000 0.64440  0.28170  0.56290  Biso   1.000  O
  C16      1.0000 0.66600  0.32750  0.57290  Biso   1.000  C
  C17      1.0000 0.69890  0.33650  0.51390  Biso   1.000  C
  F19      1.0000 0.74840  0.32540  0.54740  Biso   1.000  F
  F20      1.0000 0.69260  0.30950  0.44130  Biso   1.000  F
  F21      1.0000 0.70190  0.38540  0.48740  Biso   1.000  F
  Ag12     1.0000 0.49326  0.31772  0.83834  Biso   1.000  Ag
  Ag13     1.0000 0.61431  0.33295  0.91099  Biso   1.000  Ag
  Ag14     1.0000 0.62044  0.18937  0.82955  Biso   1.000  Ag
  Ag15     1.0000 0.38095  0.34317  0.77082  Biso   1.000  Ag
  Ag16     1.0000 0.40446  0.24071  0.84952  Biso   1.000  Ag
  Ag17     1.0000 0.56317  0.23604  0.95432  Biso   1.000  Ag
  Ag18     1.0000 0.46998  0.19565  0.08296  Biso   1.000  Ag
  Ag19     1.0000 0.58101  0.19146  0.17379  Biso   1.000  Ag
  Ag20     1.0000 0.50222  0.44687  0.96331  Biso   1.000  Ag
  Ag21     1.0000 0.67241  0.43585  0.07351  Biso   1.000  Ag
  Ag22     1.0000 0.67581  0.54006  0.14129  Biso   1.000  Ag
  C18      1.0000 0.57090  0.26430  0.83140  Biso   1.000  C
  C19      1.0000 0.42430  0.27620  0.73630  Biso   1.000  C
  C20      1.0000 0.61270  0.49400  0.07690  Biso   1.000  C
  N3       1.0000 0.57030  0.49470  0.04630  Biso   1.000  N
  N4       1.0000 0.50380  0.18650  0.21680  Biso   1.000  N
  O15      1.0000 0.59350  0.27190  0.09470  Biso   1.000  O
  O16      1.0000 0.62770  0.34710  0.06120  Biso   1.000  O
  C21      1.0000 0.61940  0.31450  0.10920  Biso   1.000  C
  C22      1.0000 0.64160  0.32450  0.20100  Biso   1.000  C
  F22      1.0000 0.62610  0.29560  0.25790  Biso   1.000  F
  F23      1.0000 0.69300  0.32340  0.22590  Biso   1.000  F
  F24      1.0000 0.63090  0.37260  0.22400  Biso   1.000  F
  O17      1.0000 0.63080  0.12570  0.94080  Biso   1.000  O
  O18      1.0000 0.59350  0.16090  0.03420  Biso   1.000  O
  C23      1.0000 0.61960  0.12750  0.00850  Biso   1.000  C
  C24      1.0000 0.63810  0.08090  0.06200  Biso   1.000  C
  F25      1.0000 0.62710  0.08050  0.13820  Biso   1.000  F
  F26      1.0000 0.62300  0.03470  0.02690  Biso   1.000  F
  F27      1.0000 0.68920  0.07530  0.08130  Biso   1.000  F
  O19      1.0000 0.48500  0.12750  0.83190  Biso   1.000  O
  O20      1.0000 0.47850  0.17330  0.94500  Biso   1.000  O
  C25      1.0000 0.47820  0.13300  0.90620  Biso   1.000  C
  C26      1.0000 0.47190  0.08230  0.94830  Biso   1.000  C
  F28      1.0000 0.51380  0.05270  0.97020  Biso   1.000  F
  F29      1.0000 0.45590  0.08730  0.01960  Biso   1.000  F
  F30      1.0000 0.43810  0.04900  0.90240  Biso   1.000  F
  O21      1.0000 0.66200  0.13170  0.76040  Biso   1.000  O
  O22      1.0000 0.36150  0.16540  0.87220  Biso   1.000  O
  C27      1.0000 0.66260  0.13340  0.68620  Biso   1.000  C
  C28      1.0000 0.69240  0.09290  0.65150  Biso   1.000  C
  F31      1.0000 0.74320  0.09850  0.67980  Biso   1.000  F
  F32      1.0000 0.68580  0.08770  0.56740  Biso   1.000  F
  F33      1.0000 0.68450  0.04410  0.67410  Biso   1.000  F
  O23      1.0000 0.35910  0.42760  0.72750  Biso   1.000  O
  O24      1.0000 0.64410  0.41750  0.90960  Biso   1.000  O
  C29      1.0000 0.34950  0.44150  0.65200  Biso   1.000  C
  C30      1.0000 0.32780  0.49550  0.63450  Biso   1.000  C
  F34      1.0000 0.35540  0.52830  0.59900  Biso   1.000  F
  F35      1.0000 0.28180  0.49870  0.58110  Biso   1.000  F
  F36      1.0000 0.32070  0.52380  0.69920  Biso   1.000  F
  O25      1.0000 0.48720  0.35700  0.96750  Biso   1.000  O
  O26      1.0000 0.47490  0.27590  0.00370  Biso   1.000  O
  C31      1.0000 0.47790  0.32300  0.01780  Biso   1.000  C
  C32      1.0000 0.46850  0.34310  0.09710  Biso   1.000  C
  F37      1.0000 0.45790  0.30810  0.15130  Biso   1.000  F
  F38      1.0000 0.50750  0.36940  0.14590  Biso   1.000  F
  F39      1.0000 0.43100  0.37820  0.09180  Biso   1.000  F
  O27      1.0000 0.34090  0.36270  0.88050  Biso   1.000  O
  O28      1.0000 0.35560  0.28170  0.93710  Biso   1.000  O
  C33      1.0000 0.33400  0.32750  0.92710  Biso   1.000  C
  C34      1.0000 0.30110  0.33650  0.98610  Biso   1.000  C
  F40      1.0000 0.25160  0.32540  0.95260  Biso   1.000  F
  F41      1.0000 0.30740  0.30950  0.05870  Biso   1.000  F
  F42      1.0000 0.29810  0.38540  0.01260  Biso   1.000  F
  Ag23     1.0000 0.49326  0.68228  0.33834  Biso   1.000  Ag
  Ag24     1.0000 0.61431  0.66705  0.41099  Biso   1.000  Ag
  Ag25     1.0000 0.62044  0.81063  0.32955  Biso   1.000  Ag
  Ag26     1.0000 0.38095  0.65683  0.27082  Biso   1.000  Ag
  Ag27     1.0000 0.40446  0.75929  0.34952  Biso   1.000  Ag
  Ag28     1.0000 0.56317  0.76396  0.45432  Biso   1.000  Ag
  Ag29     1.0000 0.46998  0.80435  0.58296  Biso   1.000  Ag
  Ag30     1.0000 0.58101  0.80854  0.67379  Biso   1.000  Ag
  Ag31     1.0000 0.50222  0.55313  0.46331  Biso   1.000  Ag
  Ag32     1.0000 0.67241  0.56415  0.57351  Biso   1.000  Ag
  Ag33     1.0000 0.67581  0.45994  0.64129  Biso   1.000  Ag
  C35      1.0000 0.57090  0.73570  0.33140  Biso   1.000  C
  C36      1.0000 0.42430  0.72380  0.23630  Biso   1.000  C
  C37      1.0000 0.61270  0.50600  0.57690  Biso   1.000  C
  N5       1.0000 0.57030  0.50530  0.54630  Biso   1.000  N
  N6       1.0000 0.50380  0.81350  0.71680  Biso   1.000  N
  O29      1.0000 0.59350  0.72810  0.59470  Biso   1.000  O
  O30      1.0000 0.62770  0.65290  0.56120  Biso   1.000  O
  C38      1.0000 0.61940  0.68550  0.60920  Biso   1.000  C
  C39      1.0000 0.64160  0.67550  0.70100  Biso   1.000  C
  F43      1.0000 0.62610  0.70440  0.75790  Biso   1.000  F
  F44      1.0000 0.69300  0.67660  0.72590  Biso   1.000  F
  F45      1.0000 0.63090  0.62740  0.72400  Biso   1.000  F
  O31      1.0000 0.63080  0.87430  0.44080  Biso   1.000  O
  O32      1.0000 0.59350  0.83910  0.53420  Biso   1.000  O
  C40      1.0000 0.61960  0.87250  0.50850  Biso   1.000  C
  C41      1.0000 0.63810  0.91910  0.56200  Biso   1.000  C
  F46      1.0000 0.62710  0.91950  0.63820  Biso   1.000  F
  F47      1.0000 0.62300  0.96530  0.52690  Biso   1.000  F
  F48      1.0000 0.68920  0.92470  0.58130  Biso   1.000  F
  O33      1.0000 0.48500  0.87250  0.33190  Biso   1.000  O
  O34      1.0000 0.47850  0.82670  0.44500  Biso   1.000  O
  C42      1.0000 0.47820  0.86700  0.40620  Biso   1.000  C
  C43      1.0000 0.47190  0.91770  0.44830  Biso   1.000  C
  F49      1.0000 0.51380  0.94730  0.47020  Biso   1.000  F
  F50      1.0000 0.45590  0.91270  0.51960  Biso   1.000  F
  F51      1.0000 0.43810  0.95100  0.40240  Biso   1.000  F
  O35      1.0000 0.66200  0.86830  0.26040  Biso   1.000  O
  O36      1.0000 0.36150  0.83460  0.37220  Biso   1.000  O
  C44      1.0000 0.66260  0.86660  0.18620  Biso   1.000  C
  C45      1.0000 0.69240  0.90710  0.15150  Biso   1.000  C
  F52      1.0000 0.74320  0.90150  0.17980  Biso   1.000  F
  F53      1.0000 0.68580  0.91230  0.06740  Biso   1.000  F
  F54      1.0000 0.68450  0.95590  0.17410  Biso   1.000  F
  O37      1.0000 0.35910  0.57240  0.22750  Biso   1.000  O
  O38      1.0000 0.64410  0.58250  0.40960  Biso   1.000  O
  C46      1.0000 0.34950  0.55850  0.15200  Biso   1.000  C
  C47      1.0000 0.32780  0.50450  0.13450  Biso   1.000  C
  F55      1.0000 0.35540  0.47170  0.09900  Biso   1.000  F
  F56      1.0000 0.28180  0.50130  0.08110  Biso   1.000  F
  F57      1.0000 0.32070  0.47620  0.19920  Biso   1.000  F
  O39      1.0000 0.48720  0.64300  0.46750  Biso   1.000  O
  O40      1.0000 0.47490  0.72410  0.50370  Biso   1.000  O
  C48      1.0000 0.47790  0.67700  0.51780  Biso   1.000  C
  C49      1.0000 0.46850  0.65690  0.59710  Biso   1.000  C
  F58      1.0000 0.45790  0.69190  0.65130  Biso   1.000  F
  F59      1.0000 0.50750  0.63060  0.64590  Biso   1.000  F
  F60      1.0000 0.43100  0.62180  0.59180  Biso   1.000  F
  O41      1.0000 0.34090  0.63730  0.38050  Biso   1.000  O
  O42      1.0000 0.35560  0.71830  0.43710  Biso   1.000  O
  C50      1.0000 0.33400  0.67250  0.42710  Biso   1.000  C
  C51      1.0000 0.30110  0.66350  0.48610  Biso   1.000  C
  F61      1.0000 0.25160  0.67460  0.45260  Biso   1.000  F
  F62      1.0000 0.30740  0.69050  0.55870  Biso   1.000  F
  F63      1.0000 0.29810  0.61460  0.51260  Biso   1.000  F
  Ag34     1.0000 0.50674  0.68228  0.16166  Biso   1.000  Ag
  Ag35     1.0000 0.38569  0.66705  0.08901  Biso   1.000  Ag
  Ag36     1.0000 0.37956  0.81063  0.17045  Biso   1.000  Ag
  Ag37     1.0000 0.61905  0.65683  0.22918  Biso   1.000  Ag
  Ag38     1.0000 0.59554  0.75929  0.15048  Biso   1.000  Ag
  Ag39     1.0000 0.43683  0.76396  0.04568  Biso   1.000  Ag
  Ag40     1.0000 0.53002  0.80435  0.91704  Biso   1.000  Ag
  Ag41     1.0000 0.41899  0.80854  0.82621  Biso   1.000  Ag
  Ag42     1.0000 0.49778  0.55313  0.03669  Biso   1.000  Ag
  Ag43     1.0000 0.32759  0.56415  0.92649  Biso   1.000  Ag
  Ag44     1.0000 0.32419  0.45994  0.85871  Biso   1.000  Ag
  C52      1.0000 0.42910  0.73570  0.16860  Biso   1.000  C
  C53      1.0000 0.57570  0.72380  0.26370  Biso   1.000  C
  C54      1.0000 0.38730  0.50600  0.92310  Biso   1.000  C
  N7       1.0000 0.42970  0.50530  0.95370  Biso   1.000  N
  N8       1.0000 0.49620  0.81350  0.78320  Biso   1.000  N
  O43      1.0000 0.40650  0.72810  0.90530  Biso   1.000  O
  O44      1.0000 0.37230  0.65290  0.93880  Biso   1.000  O
  C55      1.0000 0.38060  0.68550  0.89080  Biso   1.000  C
  C56      1.0000 0.35840  0.67550  0.79900  Biso   1.000  C
  F64      1.0000 0.37390  0.70440  0.74210  Biso   1.000  F
  F65      1.0000 0.30700  0.67660  0.77410  Biso   1.000  F
  F66      1.0000 0.36910  0.62740  0.77600  Biso   1.000  F
  O45      1.0000 0.36920  0.87430  0.05920  Biso   1.000  O
  O46      1.0000 0.40650  0.83910  0.96580  Biso   1.000  O
  C57      1.0000 0.38040  0.87250  0.99150  Biso   1.000  C
  C58      1.0000 0.36190  0.91910  0.93800  Biso   1.000  C
  F67      1.0000 0.37290  0.91950  0.86180  Biso   1.000  F
  F68      1.0000 0.37700  0.96530  0.97310  Biso   1.000  F
  F69      1.0000 0.31080  0.92470  0.91870  Biso   1.000  F
  O47      1.0000 0.51500  0.87250  0.16810  Biso   1.000  O
  O48      1.0000 0.52150  0.82670  0.05500  Biso   1.000  O
  C59      1.0000 0.52180  0.86700  0.09380  Biso   1.000  C
  C60      1.0000 0.52810  0.91770  0.05170  Biso   1.000  C
  F70      1.0000 0.48620  0.94730  0.02980  Biso   1.000  F
  F71      1.0000 0.54410  0.91270  0.98040  Biso   1.000  F
  F72      1.0000 0.56190  0.95100  0.09760  Biso   1.000  F
  O49      1.0000 0.33800  0.86830  0.23960  Biso   1.000  O
  O50      1.0000 0.63850  0.83460  0.12780  Biso   1.000  O
  C61      1.0000 0.33740  0.86660  0.31380  Biso   1.000  C
  C62      1.0000 0.30760  0.90710  0.34850  Biso   1.000  C
  F73      1.0000 0.25680  0.90150  0.32020  Biso   1.000  F
  F74      1.0000 0.31420  0.91230  0.43260  Biso   1.000  F
  F75      1.0000 0.31550  0.95590  0.32590  Biso   1.000  F
  O51      1.0000 0.64090  0.57240  0.27250  Biso   1.000  O
  O52      1.0000 0.35590  0.58250  0.09040  Biso   1.000  O
  C63      1.0000 0.65050  0.55850  0.34800  Biso   1.000  C
  C64      1.0000 0.67220  0.50450  0.36550  Biso   1.000  C
  F76      1.0000 0.64460  0.47170  0.40100  Biso   1.000  F
  F77      1.0000 0.71820  0.50130  0.41890  Biso   1.000  F
  F78      1.0000 0.67930  0.47620  0.30080  Biso   1.000  F
  O53      1.0000 0.51280  0.64300  0.03250  Biso   1.000  O
  O54      1.0000 0.52510  0.72410  0.99630  Biso   1.000  O
  C65      1.0000 0.52210  0.67700  0.98220  Biso   1.000  C
  C66      1.0000 0.53150  0.65690  0.90290  Biso   1.000  C
  F79      1.0000 0.54210  0.69190  0.84870  Biso   1.000  F
  F80      1.0000 0.49250  0.63060  0.85410  Biso   1.000  F
  F81      1.0000 0.56900  0.62180  0.90820  Biso   1.000  F
  O55      1.0000 0.65910  0.63730  0.11950  Biso   1.000  O
  O56      1.0000 0.64440  0.71830  0.06290  Biso   1.000  O
  C67      1.0000 0.66600  0.67250  0.07290  Biso   1.000  C
  C68      1.0000 0.69890  0.66350  0.01390  Biso   1.000  C
  F82      1.0000 0.74840  0.67460  0.04740  Biso   1.000  F
  F83      1.0000 0.69260  0.69050  0.94130  Biso   1.000  F
  F84      1.0000 0.70190  0.61460  0.98740  Biso   1.000  F
  Ag45     1.0000 0.50000  0.19989  0.75000  Biso   1.000  Ag
  Ag46     1.0000 0.50000  0.80011  0.25000  Biso   1.000  Ag
  Ag47     1.0000 0.00674  0.81772  0.66166  Biso   1.000  Ag
  Ag48     1.0000 0.88569  0.83295  0.58901  Biso   1.000  Ag
  Ag49     1.0000 0.87956  0.68937  0.67045  Biso   1.000  Ag
  Ag50     1.0000 0.11905  0.84317  0.72918  Biso   1.000  Ag
  Ag51     1.0000 0.09554  0.74071  0.65048  Biso   1.000  Ag
  Ag52     1.0000 0.93683  0.73604  0.54568  Biso   1.000  Ag
  Ag53     1.0000 0.03002  0.69565  0.41704  Biso   1.000  Ag
  Ag54     1.0000 0.91899  0.69146  0.32621  Biso   1.000  Ag
  Ag55     1.0000 0.99778  0.94687  0.53669  Biso   1.000  Ag
  Ag56     1.0000 0.82759  0.93585  0.42649  Biso   1.000  Ag
  Ag57     1.0000 0.82419  0.04006  0.35871  Biso   1.000  Ag
  C69      1.0000 0.92910  0.76430  0.66860  Biso   1.000  C
  C70      1.0000 0.07570  0.77620  0.76370  Biso   1.000  C
  C71      1.0000 0.88730  0.99400  0.42310  Biso   1.000  C
  N9       1.0000 0.92970  0.99470  0.45370  Biso   1.000  N
  N10      1.0000 0.99620  0.68650  0.28320  Biso   1.000  N
  O57      1.0000 0.90650  0.77190  0.40530  Biso   1.000  O
  O58      1.0000 0.87230  0.84710  0.43880  Biso   1.000  O
  C72      1.0000 0.88060  0.81450  0.39080  Biso   1.000  C
  C73      1.0000 0.85840  0.82450  0.29900  Biso   1.000  C
  F85      1.0000 0.87390  0.79560  0.24210  Biso   1.000  F
  F86      1.0000 0.80700  0.82340  0.27410  Biso   1.000  F
  F87      1.0000 0.86910  0.87260  0.27600  Biso   1.000  F
  O59      1.0000 0.86920  0.62570  0.55920  Biso   1.000  O
  O60      1.0000 0.90650  0.66090  0.46580  Biso   1.000  O
  C74      1.0000 0.88040  0.62750  0.49150  Biso   1.000  C
  C75      1.0000 0.86190  0.58090  0.43800  Biso   1.000  C
  F88      1.0000 0.87290  0.58050  0.36180  Biso   1.000  F
  F89      1.0000 0.87700  0.53470  0.47310  Biso   1.000  F
  F90      1.0000 0.81080  0.57530  0.41870  Biso   1.000  F
  O61      1.0000 0.01500  0.62750  0.66810  Biso   1.000  O
  O62      1.0000 0.02150  0.67330  0.55500  Biso   1.000  O
  C76      1.0000 0.02180  0.63300  0.59380  Biso   1.000  C
  C77      1.0000 0.02810  0.58230  0.55170  Biso   1.000  C
  F91      1.0000 0.98620  0.55270  0.52980  Biso   1.000  F
  F92      1.0000 0.04410  0.58730  0.48040  Biso   1.000  F
  F93      1.0000 0.06190  0.54900  0.59760  Biso   1.000  F
  O63      1.0000 0.83800  0.63170  0.73960  Biso   1.000  O
  O64      1.0000 0.13850  0.66540  0.62780  Biso   1.000  O
  C78      1.0000 0.83740  0.63340  0.81380  Biso   1.000  C
  C79      1.0000 0.80760  0.59290  0.84850  Biso   1.000  C
  F94      1.0000 0.75680  0.59850  0.82020  Biso   1.000  F
  F95      1.0000 0.81420  0.58770  0.93260  Biso   1.000  F
  F96      1.0000 0.81550  0.54410  0.82590  Biso   1.000  F
  O65      1.0000 0.14090  0.92760  0.77250  Biso   1.000  O
  O66      1.0000 0.85590  0.91750  0.59040  Biso   1.000  O
  C80      1.0000 0.15050  0.94150  0.84800  Biso   1.000  C
  C81      1.0000 0.17220  0.99550  0.86550  Biso   1.000  C
  F97      1.0000 0.14460  0.02830  0.90100  Biso   1.000  F
  F98      1.0000 0.21820  0.99870  0.91890  Biso   1.000  F
  F99      1.0000 0.17930  0.02380  0.80080  Biso   1.000  F
  O67      1.0000 0.01280  0.85700  0.53250  Biso   1.000  O
  O68      1.0000 0.02510  0.77590  0.49630  Biso   1.000  O
  C82      1.0000 0.02210  0.82300  0.48220  Biso   1.000  C
  C83      1.0000 0.03150  0.84310  0.40290  Biso   1.000  C
  F100     1.0000 0.04210  0.80810  0.34870  Biso   1.000  F
  F101     1.0000 0.99250  0.86940  0.35410  Biso   1.000  F
  F102     1.0000 0.06900  0.87820  0.40820  Biso   1.000  F
  O69      1.0000 0.15910  0.86270  0.61950  Biso   1.000  O
  O70      1.0000 0.14440  0.78170  0.56290  Biso   1.000  O
  C84      1.0000 0.16600  0.82750  0.57290  Biso   1.000  C
  C85      1.0000 0.19890  0.83650  0.51390  Biso   1.000  C
  F103     1.0000 0.24840  0.82540  0.54740  Biso   1.000  F
  F104     1.0000 0.19260  0.80950  0.44130  Biso   1.000  F
  F105     1.0000 0.20190  0.88540  0.48740  Biso   1.000  F
  Ag58     1.0000 0.99326  0.81772  0.83834  Biso   1.000  Ag
  Ag59     1.0000 0.11431  0.83295  0.91099  Biso   1.000  Ag
  Ag60     1.0000 0.12044  0.68937  0.82955  Biso   1.000  Ag
  Ag61     1.0000 0.88095  0.84317  0.77082  Biso   1.000  Ag
  Ag62     1.0000 0.90446  0.74071  0.84952  Biso   1.000  Ag
  Ag63     1.0000 0.06317  0.73604  0.95432  Biso   1.000  Ag
  Ag64     1.0000 0.96998  0.69565  0.08296  Biso   1.000  Ag
  Ag65     1.0000 0.08101  0.69146  0.17379  Biso   1.000  Ag
  Ag66     1.0000 0.00222  0.94687  0.96331  Biso   1.000  Ag
  Ag67     1.0000 0.17241  0.93585  0.07351  Biso   1.000  Ag
  Ag68     1.0000 0.17581  0.04006  0.14129  Biso   1.000  Ag
  C86      1.0000 0.07090  0.76430  0.83140  Biso   1.000  C
  C87      1.0000 0.92430  0.77620  0.73630  Biso   1.000  C
  C88      1.0000 0.11270  0.99400  0.07690  Biso   1.000  C
  N11      1.0000 0.07030  0.99470  0.04630  Biso   1.000  N
  N12      1.0000 0.00380  0.68650  0.21680  Biso   1.000  N
  O71      1.0000 0.09350  0.77190  0.09470  Biso   1.000  O
  O72      1.0000 0.12770  0.84710  0.06120  Biso   1.000  O
  C89      1.0000 0.11940  0.81450  0.10920  Biso   1.000  C
  C90      1.0000 0.14160  0.82450  0.20100  Biso   1.000  C
  F106     1.0000 0.12610  0.79560  0.25790  Biso   1.000  F
  F107     1.0000 0.19300  0.82340  0.22590  Biso   1.000  F
  F108     1.0000 0.13090  0.87260  0.22400  Biso   1.000  F
  O73      1.0000 0.13080  0.62570  0.94080  Biso   1.000  O
  O74      1.0000 0.09350  0.66090  0.03420  Biso   1.000  O
  C91      1.0000 0.11960  0.62750  0.00850  Biso   1.000  C
  C92      1.0000 0.13810  0.58090  0.06200  Biso   1.000  C
  F109     1.0000 0.12710  0.58050  0.13820  Biso   1.000  F
  F110     1.0000 0.12300  0.53470  0.02690  Biso   1.000  F
  F111     1.0000 0.18920  0.57530  0.08130  Biso   1.000  F
  O75      1.0000 0.98500  0.62750  0.83190  Biso   1.000  O
  O76      1.0000 0.97850  0.67330  0.94500  Biso   1.000  O
  C93      1.0000 0.97820  0.63300  0.90620  Biso   1.000  C
  C94      1.0000 0.97190  0.58230  0.94830  Biso   1.000  C
  F112     1.0000 0.01380  0.55270  0.97020  Biso   1.000  F
  F113     1.0000 0.95590  0.58730  0.01960  Biso   1.000  F
  F114     1.0000 0.93810  0.54900  0.90240  Biso   1.000  F
  O77      1.0000 0.16200  0.63170  0.76040  Biso   1.000  O
  O78      1.0000 0.86150  0.66540  0.87220  Biso   1.000  O
  C95      1.0000 0.16260  0.63340  0.68620  Biso   1.000  C
  C96      1.0000 0.19240  0.59290  0.65150  Biso   1.000  C
  F115     1.0000 0.24320  0.59850  0.67980  Biso   1.000  F
  F116     1.0000 0.18580  0.58770  0.56740  Biso   1.000  F
  F117     1.0000 0.18450  0.54410  0.67410  Biso   1.000  F
  O79      1.0000 0.85910  0.92760  0.72750  Biso   1.000  O
  O80      1.0000 0.14410  0.91750  0.90960  Biso   1.000  O
  C97      1.0000 0.84950  0.94150  0.65200  Biso   1.000  C
  C98      1.0000 0.82780  0.99550  0.63450  Biso   1.000  C
  F118     1.0000 0.85540  0.02830  0.59900  Biso   1.000  F
  F119     1.0000 0.78180  0.99870  0.58110  Biso   1.000  F
  F120     1.0000 0.82070  0.02380  0.69920  Biso   1.000  F
  O81      1.0000 0.98720  0.85700  0.96750  Biso   1.000  O
  O82      1.0000 0.97490  0.77590  0.00370  Biso   1.000  O
  C99      1.0000 0.97790  0.82300  0.01780  Biso   1.000  C
  C100     1.0000 0.96850  0.84310  0.09710  Biso   1.000  C
  F121     1.0000 0.95790  0.80810  0.15130  Biso   1.000  F
  F122     1.0000 0.00750  0.86940  0.14590  Biso   1.000  F
  F123     1.0000 0.93100  0.87820  0.09180  Biso   1.000  F
  O83      1.0000 0.84090  0.86270  0.88050  Biso   1.000  O
  O84      1.0000 0.85560  0.78170  0.93710  Biso   1.000  O
  C101     1.0000 0.83400  0.82750  0.92710  Biso   1.000  C
  C102     1.0000 0.80110  0.83650  0.98610  Biso   1.000  C
  F124     1.0000 0.75160  0.82540  0.95260  Biso   1.000  F
  F125     1.0000 0.80740  0.80950  0.05870  Biso   1.000  F
  F126     1.0000 0.79810  0.88540  0.01260  Biso   1.000  F
  Ag69     1.0000 0.99326  0.18228  0.33834  Biso   1.000  Ag
  Ag70     1.0000 0.11431  0.16705  0.41099  Biso   1.000  Ag
  Ag71     1.0000 0.12044  0.31063  0.32955  Biso   1.000  Ag
  Ag72     1.0000 0.88095  0.15683  0.27082  Biso   1.000  Ag
  Ag73     1.0000 0.90446  0.25929  0.34952  Biso   1.000  Ag
  Ag74     1.0000 0.06317  0.26396  0.45432  Biso   1.000  Ag
  Ag75     1.0000 0.96998  0.30435  0.58296  Biso   1.000  Ag
  Ag76     1.0000 0.08101  0.30854  0.67379  Biso   1.000  Ag
  Ag77     1.0000 0.00222  0.05313  0.46331  Biso   1.000  Ag
  Ag78     1.0000 0.17241  0.06415  0.57351  Biso   1.000  Ag
  Ag79     1.0000 0.17581  0.95994  0.64129  Biso   1.000  Ag
  C103     1.0000 0.07090  0.23570  0.33140  Biso   1.000  C
  C104     1.0000 0.92430  0.22380  0.23630  Biso   1.000  C
  C105     1.0000 0.11270  0.00600  0.57690  Biso   1.000  C
  N13      1.0000 0.07030  0.00530  0.54630  Biso   1.000  N
  N14      1.0000 0.00380  0.31350  0.71680  Biso   1.000  N
  O85      1.0000 0.09350  0.22810  0.59470  Biso   1.000  O
  O86      1.0000 0.12770  0.15290  0.56120  Biso   1.000  O
  C106     1.0000 0.11940  0.18550  0.60920  Biso   1.000  C
  C107     1.0000 0.14160  0.17550  0.70100  Biso   1.000  C
  F127     1.0000 0.12610  0.20440  0.75790  Biso   1.000  F
  F128     1.0000 0.19300  0.17660  0.72590  Biso   1.000  F
  F129     1.0000 0.13090  0.12740  0.72400  Biso   1.000  F
  O87      1.0000 0.13080  0.37430  0.44080  Biso   1.000  O
  O88      1.0000 0.09350  0.33910  0.53420  Biso   1.000  O
  C108     1.0000 0.11960  0.37250  0.50850  Biso   1.000  C
  C109     1.0000 0.13810  0.41910  0.56200  Biso   1.000  C
  F130     1.0000 0.12710  0.41950  0.63820  Biso   1.000  F
  F131     1.0000 0.12300  0.46530  0.52690  Biso   1.000  F
  F132     1.0000 0.18920  0.42470  0.58130  Biso   1.000  F
  O89      1.0000 0.98500  0.37250  0.33190  Biso   1.000  O
  O90      1.0000 0.97850  0.32670  0.44500  Biso   1.000  O
  C110     1.0000 0.97820  0.36700  0.40620  Biso   1.000  C
  C111     1.0000 0.97190  0.41770  0.44830  Biso   1.000  C
  F133     1.0000 0.01380  0.44730  0.47020  Biso   1.000  F
  F134     1.0000 0.95590  0.41270  0.51960  Biso   1.000  F
  F135     1.0000 0.93810  0.45100  0.40240  Biso   1.000  F
  O91      1.0000 0.16200  0.36830  0.26040  Biso   1.000  O
  O92      1.0000 0.86150  0.33460  0.37220  Biso   1.000  O
  C112     1.0000 0.16260  0.36660  0.18620  Biso   1.000  C
  C113     1.0000 0.19240  0.40710  0.15150  Biso   1.000  C
  F136     1.0000 0.24320  0.40150  0.17980  Biso   1.000  F
  F137     1.0000 0.18580  0.41230  0.06740  Biso   1.000  F
  F138     1.0000 0.18450  0.45590  0.17410  Biso   1.000  F
  O93      1.0000 0.85910  0.07240  0.22750  Biso   1.000  O
  O94      1.0000 0.14410  0.08250  0.40960  Biso   1.000  O
  C114     1.0000 0.84950  0.05850  0.15200  Biso   1.000  C
  C115     1.0000 0.82780  0.00450  0.13450  Biso   1.000  C
  F139     1.0000 0.85540  0.97170  0.09900  Biso   1.000  F
  F140     1.0000 0.78180  0.00130  0.08110  Biso   1.000  F
  F141     1.0000 0.82070  0.97620  0.19920  Biso   1.000  F
  O95      1.0000 0.98720  0.14300  0.46750  Biso   1.000  O
  O96      1.0000 0.97490  0.22410  0.50370  Biso   1.000  O
  C116     1.0000 0.97790  0.17700  0.51780  Biso   1.000  C
  C117     1.0000 0.96850  0.15690  0.59710  Biso   1.000  C
  F142     1.0000 0.95790  0.19190  0.65130  Biso   1.000  F
  F143     1.0000 0.00750  0.13060  0.64590  Biso   1.000  F
  F144     1.0000 0.93100  0.12180  0.59180  Biso   1.000  F
  O97      1.0000 0.84090  0.13730  0.38050  Biso   1.000  O
  O98      1.0000 0.85560  0.21830  0.43710  Biso   1.000  O
  C118     1.0000 0.83400  0.17250  0.42710  Biso   1.000  C
  C119     1.0000 0.80110  0.16350  0.48610  Biso   1.000  C
  F145     1.0000 0.75160  0.17460  0.45260  Biso   1.000  F
  F146     1.0000 0.80740  0.19050  0.55870  Biso   1.000  F
  F147     1.0000 0.79810  0.11460  0.51260  Biso   1.000  F
  Ag80     1.0000 0.00674  0.18228  0.16166  Biso   1.000  Ag
  Ag81     1.0000 0.88569  0.16705  0.08901  Biso   1.000  Ag
  Ag82     1.0000 0.87956  0.31063  0.17045  Biso   1.000  Ag
  Ag83     1.0000 0.11905  0.15683  0.22918  Biso   1.000  Ag
  Ag84     1.0000 0.09554  0.25929  0.15048  Biso   1.000  Ag
  Ag85     1.0000 0.93683  0.26396  0.04568  Biso   1.000  Ag
  Ag86     1.0000 0.03002  0.30435  0.91704  Biso   1.000  Ag
  Ag87     1.0000 0.91899  0.30854  0.82621  Biso   1.000  Ag
  Ag88     1.0000 0.99778  0.05313  0.03669  Biso   1.000  Ag
  Ag89     1.0000 0.82759  0.06415  0.92649  Biso   1.000  Ag
  Ag90     1.0000 0.82419  0.95994  0.85871  Biso   1.000  Ag
  C120     1.0000 0.92910  0.23570  0.16860  Biso   1.000  C
  C121     1.0000 0.07570  0.22380  0.26370  Biso   1.000  C
  C122     1.0000 0.88730  0.00600  0.92310  Biso   1.000  C
  N15      1.0000 0.92970  0.00530  0.95370  Biso   1.000  N
  N16      1.0000 0.99620  0.31350  0.78320  Biso   1.000  N
  O99      1.0000 0.90650  0.22810  0.90530  Biso   1.000  O
  O100     1.0000 0.87230  0.15290  0.93880  Biso   1.000  O
  C123     1.0000 0.88060  0.18550  0.89080  Biso   1.000  C
  C124     1.0000 0.85840  0.17550  0.79900  Biso   1.000  C
  F148     1.0000 0.87390  0.20440  0.74210  Biso   1.000  F
  F149     1.0000 0.80700  0.17660  0.77410  Biso   1.000  F
  F150     1.0000 0.86910  0.12740  0.77600  Biso   1.000  F
  O101     1.0000 0.86920  0.37430  0.05920  Biso   1.000  O
  O102     1.0000 0.90650  0.33910  0.96580  Biso   1.000  O
  C125     1.0000 0.88040  0.37250  0.99150  Biso   1.000  C
  C126     1.0000 0.86190  0.41910  0.93800  Biso   1.000  C
  F151     1.0000 0.87290  0.41950  0.86180  Biso   1.000  F
  F152     1.0000 0.87700  0.46530  0.97310  Biso   1.000  F
  F153     1.0000 0.81080  0.42470  0.91870  Biso   1.000  F
  O103     1.0000 0.01500  0.37250  0.16810  Biso   1.000  O
  O104     1.0000 0.02150  0.32670  0.05500  Biso   1.000  O
  C127     1.0000 0.02180  0.36700  0.09380  Biso   1.000  C
  C128     1.0000 0.02810  0.41770  0.05170  Biso   1.000  C
  F154     1.0000 0.98620  0.44730  0.02980  Biso   1.000  F
  F155     1.0000 0.04410  0.41270  0.98040  Biso   1.000  F
  F156     1.0000 0.06190  0.45100  0.09760  Biso   1.000  F
  O105     1.0000 0.83800  0.36830  0.23960  Biso   1.000  O
  O106     1.0000 0.13850  0.33460  0.12780  Biso   1.000  O
  C129     1.0000 0.83740  0.36660  0.31380  Biso   1.000  C
  C130     1.0000 0.80760  0.40710  0.34850  Biso   1.000  C
  F157     1.0000 0.75680  0.40150  0.32020  Biso   1.000  F
  F158     1.0000 0.81420  0.41230  0.43260  Biso   1.000  F
  F159     1.0000 0.81550  0.45590  0.32590  Biso   1.000  F
  O107     1.0000 0.14090  0.07240  0.27250  Biso   1.000  O
  O108     1.0000 0.85590  0.08250  0.09040  Biso   1.000  O
  C131     1.0000 0.15050  0.05850  0.34800  Biso   1.000  C
  C132     1.0000 0.17220  0.00450  0.36550  Biso   1.000  C
  F160     1.0000 0.14460  0.97170  0.40100  Biso   1.000  F
  F161     1.0000 0.21820  0.00130  0.41890  Biso   1.000  F
  F162     1.0000 0.17930  0.97620  0.30080  Biso   1.000  F
  O109     1.0000 0.01280  0.14300  0.03250  Biso   1.000  O
  O110     1.0000 0.02510  0.22410  0.99630  Biso   1.000  O
  C133     1.0000 0.02210  0.17700  0.98220  Biso   1.000  C
  C134     1.0000 0.03150  0.15690  0.90290  Biso   1.000  C
  F163     1.0000 0.04210  0.19190  0.84870  Biso   1.000  F
  F164     1.0000 0.99250  0.13060  0.85410  Biso   1.000  F
  F165     1.0000 0.06900  0.12180  0.90820  Biso   1.000  F
  O111     1.0000 0.15910  0.13730  0.11950  Biso   1.000  O
  O112     1.0000 0.14440  0.21830  0.06290  Biso   1.000  O
  C135     1.0000 0.16600  0.17250  0.07290  Biso   1.000  C
  C136     1.0000 0.19890  0.16350  0.01390  Biso   1.000  C
  F166     1.0000 0.24840  0.17460  0.04740  Biso   1.000  F
  F167     1.0000 0.19260  0.19050  0.94130  Biso   1.000  F
  F168     1.0000 0.20190  0.11460  0.98740  Biso   1.000  F
  Ag91     1.0000 0.00000  0.69989  0.75000  Biso   1.000  Ag
  Ag92     1.0000 0.00000  0.30011  0.25000  Biso   1.000  Ag
