data_image0
_cell_length_a       15.712
_cell_length_b       9.3505
_cell_length_c       18.7239
_cell_angle_alpha    90
_cell_angle_beta     99.482
_cell_angle_gamma    90

_symmetry_space_group_name_H-M    "P 1"
_symmetry_int_tables_number       1

loop_
  _symmetry_equiv_pos_as_xyz
  'x, y, z'

loop_
  _atom_site_label
  _atom_site_occupancy
  _atom_site_fract_x
  _atom_site_fract_y
  _atom_site_fract_z
  _atom_site_thermal_displace_type
  _atom_site_B_iso_or_equiv
  _atom_site_type_symbol
  Ag1      1.0000 0.92228  0.47822  0.70244  Biso   1.000  Ag
  Ag2      1.0000 0.83715  0.20066  0.52024  Biso   1.000  Ag
  C1       1.0000 0.63310  0.38840  0.54250  Biso   1.000  C
  H1       1.0000 0.57600  0.38040  0.55420  Biso   1.000  H
  H2       1.0000 0.64690  0.30280  0.51860  Biso   1.000  H
  H3       1.0000 0.63550  0.46900  0.51110  Biso   1.000  H
  C2       1.0000 0.68070  0.54350  0.65360  Biso   1.000  C
  H4       1.0000 0.62560  0.53470  0.66900  Biso   1.000  H
  H5       1.0000 0.68020  0.62490  0.62230  Biso   1.000  H
  H6       1.0000 0.72490  0.55570  0.69510  Biso   1.000  H
  C3       1.0000 0.69860  0.27620  0.65880  Biso   1.000  C
  H7       1.0000 0.73790  0.28830  0.70340  Biso   1.000  H
  H8       1.0000 0.71600  0.19560  0.63300  Biso   1.000  H
  H9       1.0000 0.64150  0.26020  0.66920  Biso   1.000  H
  C4       1.0000 0.69890  0.40950  0.61300  Biso   1.000  C
  C5       1.0000 0.81290  0.57950  0.54020  Biso   1.000  C
  H10      1.0000 0.85090  0.56330  0.50510  Biso   1.000  H
  H11      1.0000 0.75560  0.59720  0.51340  Biso   1.000  H
  C6       1.0000 0.84280  0.71380  0.58250  Biso   1.000  C
  C7       1.0000 0.92310  0.82400  0.68111  Biso   1.000  C
  C8       1.0000 0.97620  0.81650  0.74930  Biso   1.000  C
  H12      1.0000 0.98830  0.72820  0.77160  Biso   1.000  H
  C9       1.0000 0.01010  0.93810  0.78290  Biso   1.000  C
  H13      1.0000 0.04480  0.93210  0.82810  Biso   1.000  H
  C10      1.0000 0.99320  0.07150  0.75010  Biso   1.000  C
  H14      1.0000 0.01690  0.15350  0.77350  Biso   1.000  H
  C11      1.0000 0.94210  0.08230  0.68380  Biso   1.000  C
  H15      1.0000 0.93140  0.17150  0.66220  Biso   1.000  H
  C12      1.0000 0.90570  0.95930  0.64825  Biso   1.000  C
  C13      1.0000 0.82280  0.85200  0.54987  Biso   1.000  C
  C14      1.0000 0.76700  0.85910  0.47590  Biso   1.000  C
  H16      1.0000 0.71940  0.79260  0.47480  Biso   1.000  H
  H17      1.0000 0.80090  0.82790  0.43990  Biso   1.000  H
  C15      1.0000 0.72440  0.04860  0.35200  Biso   1.000  C
  C16      1.0000 0.81500  0.04100  0.33660  Biso   1.000  C
  H18      1.0000 0.81390  0.03770  0.28520  Biso   1.000  H
  H19      1.0000 0.84260  0.95640  0.35840  Biso   1.000  H
  H20      1.0000 0.84650  0.12390  0.35620  Biso   1.000  H
  C17      1.0000 0.68390  0.19510  0.33380  Biso   1.000  C
  H21      1.0000 0.72090  0.26790  0.35820  Biso   1.000  H
  H22      1.0000 0.62870  0.19930  0.34940  Biso   1.000  H
  H23      1.0000 0.67670  0.21040  0.28250  Biso   1.000  H
  C18      1.0000 0.66860  0.92950  0.31370  Biso   1.000  C
  H24      1.0000 0.66350  0.94160  0.26220  Biso   1.000  H
  H25      1.0000 0.61240  0.93310  0.32730  Biso   1.000  H
  H26      1.0000 0.69480  0.83860  0.32730  Biso   1.000  H
  N1       1.0000 0.88990  0.70250  0.64671  Biso   1.000  N
  N2       1.0000 0.85390  0.96870  0.58152  Biso   1.000  N
  S1       1.0000 0.80904  0.41745  0.59160  Biso   1.000  S
  S2       1.0000 0.72343  0.03554  0.45071  Biso   1.000  S
  Ag3      1.0000 0.56692  0.02534  0.46378  Biso   1.000  Ag
  Ag4      1.0000 0.06692  0.47466  0.96378  Biso   1.000  Ag
  Ag5      1.0000 0.42228  0.02178  0.20244  Biso   1.000  Ag
  Ag6      1.0000 0.33715  0.29934  0.02024  Biso   1.000  Ag
  C19      1.0000 0.13310  0.11160  0.04250  Biso   1.000  C
  H27      1.0000 0.07600  0.11960  0.05420  Biso   1.000  H
  H28      1.0000 0.14690  0.19720  0.01860  Biso   1.000  H
  H29      1.0000 0.13550  0.03100  0.01110  Biso   1.000  H
  C20      1.0000 0.18070  0.95650  0.15360  Biso   1.000  C
  H30      1.0000 0.12560  0.96530  0.16900  Biso   1.000  H
  H31      1.0000 0.18020  0.87510  0.12230  Biso   1.000  H
  H32      1.0000 0.22490  0.94430  0.19510  Biso   1.000  H
  C21      1.0000 0.19860  0.22380  0.15880  Biso   1.000  C
  H33      1.0000 0.23790  0.21170  0.20340  Biso   1.000  H
  H34      1.0000 0.21600  0.30440  0.13300  Biso   1.000  H
  H35      1.0000 0.14150  0.23980  0.16920  Biso   1.000  H
  C22      1.0000 0.19890  0.09050  0.11300  Biso   1.000  C
  C23      1.0000 0.31290  0.92050  0.04020  Biso   1.000  C
  H36      1.0000 0.35090  0.93670  0.00510  Biso   1.000  H
  H37      1.0000 0.25560  0.90280  0.01340  Biso   1.000  H
  C24      1.0000 0.34280  0.78620  0.08250  Biso   1.000  C
  C25      1.0000 0.42310  0.67600  0.18111  Biso   1.000  C
  C26      1.0000 0.47620  0.68350  0.24930  Biso   1.000  C
  H38      1.0000 0.48830  0.77180  0.27160  Biso   1.000  H
  C27      1.0000 0.51010  0.56190  0.28290  Biso   1.000  C
  H39      1.0000 0.54480  0.56790  0.32810  Biso   1.000  H
  C28      1.0000 0.49320  0.42850  0.25010  Biso   1.000  C
  H40      1.0000 0.51690  0.34650  0.27350  Biso   1.000  H
  C29      1.0000 0.44210  0.41770  0.18380  Biso   1.000  C
  H41      1.0000 0.43140  0.32850  0.16220  Biso   1.000  H
  C30      1.0000 0.40570  0.54070  0.14825  Biso   1.000  C
  C31      1.0000 0.32280  0.64800  0.04987  Biso   1.000  C
  C32      1.0000 0.26700  0.64090  0.97590  Biso   1.000  C
  H42      1.0000 0.21940  0.70740  0.97480  Biso   1.000  H
  H43      1.0000 0.30090  0.67210  0.93990  Biso   1.000  H
  C33      1.0000 0.22440  0.45140  0.85200  Biso   1.000  C
  C34      1.0000 0.31500  0.45900  0.83660  Biso   1.000  C
  H44      1.0000 0.31390  0.46230  0.78520  Biso   1.000  H
  H45      1.0000 0.34260  0.54360  0.85840  Biso   1.000  H
  H46      1.0000 0.34650  0.37610  0.85620  Biso   1.000  H
  C35      1.0000 0.18390  0.30490  0.83380  Biso   1.000  C
  H47      1.0000 0.22090  0.23210  0.85820  Biso   1.000  H
  H48      1.0000 0.12870  0.30070  0.84940  Biso   1.000  H
  H49      1.0000 0.17670  0.28960  0.78250  Biso   1.000  H
  C36      1.0000 0.16860  0.57050  0.81370  Biso   1.000  C
  H50      1.0000 0.16350  0.55840  0.76220  Biso   1.000  H
  H51      1.0000 0.11240  0.56690  0.82730  Biso   1.000  H
  H52      1.0000 0.19480  0.66140  0.82730  Biso   1.000  H
  N3       1.0000 0.38990  0.79750  0.14671  Biso   1.000  N
  N4       1.0000 0.35390  0.53130  0.08152  Biso   1.000  N
  S3       1.0000 0.30904  0.08255  0.09160  Biso   1.000  S
  S4       1.0000 0.22343  0.46446  0.95071  Biso   1.000  S
  Ag7      1.0000 0.42228  0.97822  0.70244  Biso   1.000  Ag
  Ag8      1.0000 0.33715  0.70066  0.52024  Biso   1.000  Ag
  C37      1.0000 0.13310  0.88840  0.54250  Biso   1.000  C
  H53      1.0000 0.07600  0.88040  0.55420  Biso   1.000  H
  H54      1.0000 0.14690  0.80280  0.51860  Biso   1.000  H
  H55      1.0000 0.13550  0.96900  0.51110  Biso   1.000  H
  C38      1.0000 0.18070  0.04350  0.65360  Biso   1.000  C
  H56      1.0000 0.12560  0.03470  0.66900  Biso   1.000  H
  H57      1.0000 0.18020  0.12490  0.62230  Biso   1.000  H
  H58      1.0000 0.22490  0.05570  0.69510  Biso   1.000  H
  C39      1.0000 0.19860  0.77620  0.65880  Biso   1.000  C
  H59      1.0000 0.23790  0.78830  0.70340  Biso   1.000  H
  H60      1.0000 0.21600  0.69560  0.63300  Biso   1.000  H
  H61      1.0000 0.14150  0.76020  0.66920  Biso   1.000  H
  C40      1.0000 0.19890  0.90950  0.61300  Biso   1.000  C
  C41      1.0000 0.31290  0.07950  0.54020  Biso   1.000  C
  H62      1.0000 0.35090  0.06330  0.50510  Biso   1.000  H
  H63      1.0000 0.25560  0.09720  0.51340  Biso   1.000  H
  C42      1.0000 0.34280  0.21380  0.58250  Biso   1.000  C
  C43      1.0000 0.42310  0.32400  0.68111  Biso   1.000  C
  C44      1.0000 0.47620  0.31650  0.74930  Biso   1.000  C
  H64      1.0000 0.48830  0.22820  0.77160  Biso   1.000  H
  C45      1.0000 0.51010  0.43810  0.78290  Biso   1.000  C
  H65      1.0000 0.54480  0.43210  0.82810  Biso   1.000  H
  C46      1.0000 0.49320  0.57150  0.75010  Biso   1.000  C
  H66      1.0000 0.51690  0.65350  0.77350  Biso   1.000  H
  C47      1.0000 0.44210  0.58230  0.68380  Biso   1.000  C
  H67      1.0000 0.43140  0.67150  0.66220  Biso   1.000  H
  C48      1.0000 0.40570  0.45930  0.64825  Biso   1.000  C
  C49      1.0000 0.32280  0.35200  0.54987  Biso   1.000  C
  C50      1.0000 0.26700  0.35910  0.47590  Biso   1.000  C
  H68      1.0000 0.21940  0.29260  0.47480  Biso   1.000  H
  H69      1.0000 0.30090  0.32790  0.43990  Biso   1.000  H
  C51      1.0000 0.22440  0.54860  0.35200  Biso   1.000  C
  C52      1.0000 0.31500  0.54100  0.33660  Biso   1.000  C
  H70      1.0000 0.31390  0.53770  0.28520  Biso   1.000  H
  H71      1.0000 0.34260  0.45640  0.35840  Biso   1.000  H
  H72      1.0000 0.34650  0.62390  0.35620  Biso   1.000  H
  C53      1.0000 0.18390  0.69510  0.33380  Biso   1.000  C
  H73      1.0000 0.22090  0.76790  0.35820  Biso   1.000  H
  H74      1.0000 0.12870  0.69930  0.34940  Biso   1.000  H
  H75      1.0000 0.17670  0.71040  0.28250  Biso   1.000  H
  C54      1.0000 0.16860  0.42950  0.31370  Biso   1.000  C
  H76      1.0000 0.16350  0.44160  0.26220  Biso   1.000  H
  H77      1.0000 0.11240  0.43310  0.32730  Biso   1.000  H
  H78      1.0000 0.19480  0.33860  0.32730  Biso   1.000  H
  N5       1.0000 0.38990  0.20250  0.64671  Biso   1.000  N
  N6       1.0000 0.35390  0.46870  0.58152  Biso   1.000  N
  S5       1.0000 0.30904  0.91745  0.59160  Biso   1.000  S
  S6       1.0000 0.22343  0.53554  0.45071  Biso   1.000  S
  Ag9      1.0000 0.06692  0.52534  0.46378  Biso   1.000  Ag
  Ag10     1.0000 0.56692  0.97466  0.96378  Biso   1.000  Ag
  Ag11     1.0000 0.92228  0.52178  0.20244  Biso   1.000  Ag
  Ag12     1.0000 0.83715  0.79934  0.02024  Biso   1.000  Ag
  C55      1.0000 0.63310  0.61160  0.04250  Biso   1.000  C
  H79      1.0000 0.57600  0.61960  0.05420  Biso   1.000  H
  H80      1.0000 0.64690  0.69720  0.01860  Biso   1.000  H
  H81      1.0000 0.63550  0.53100  0.01110  Biso   1.000  H
  C56      1.0000 0.68070  0.45650  0.15360  Biso   1.000  C
  H82      1.0000 0.62560  0.46530  0.16900  Biso   1.000  H
  H83      1.0000 0.68020  0.37510  0.12230  Biso   1.000  H
  H84      1.0000 0.72490  0.44430  0.19510  Biso   1.000  H
  C57      1.0000 0.69860  0.72380  0.15880  Biso   1.000  C
  H85      1.0000 0.73790  0.71170  0.20340  Biso   1.000  H
  H86      1.0000 0.71600  0.80440  0.13300  Biso   1.000  H
  H87      1.0000 0.64150  0.73980  0.16920  Biso   1.000  H
  C58      1.0000 0.69890  0.59050  0.11300  Biso   1.000  C
  C59      1.0000 0.81290  0.42050  0.04020  Biso   1.000  C
  H88      1.0000 0.85090  0.43670  0.00510  Biso   1.000  H
  H89      1.0000 0.75560  0.40280  0.01340  Biso   1.000  H
  C60      1.0000 0.84280  0.28620  0.08250  Biso   1.000  C
  C61      1.0000 0.92310  0.17600  0.18111  Biso   1.000  C
  C62      1.0000 0.97620  0.18350  0.24930  Biso   1.000  C
  H90      1.0000 0.98830  0.27180  0.27160  Biso   1.000  H
  C63      1.0000 0.01010  0.06190  0.28290  Biso   1.000  C
  H91      1.0000 0.04480  0.06790  0.32810  Biso   1.000  H
  C64      1.0000 0.99320  0.92850  0.25010  Biso   1.000  C
  H92      1.0000 0.01690  0.84650  0.27350  Biso   1.000  H
  C65      1.0000 0.94210  0.91770  0.18380  Biso   1.000  C
  H93      1.0000 0.93140  0.82850  0.16220  Biso   1.000  H
  C66      1.0000 0.90570  0.04070  0.14825  Biso   1.000  C
  C67      1.0000 0.82280  0.14800  0.04987  Biso   1.000  C
  C68      1.0000 0.76700  0.14090  0.97590  Biso   1.000  C
  H94      1.0000 0.71940  0.20740  0.97480  Biso   1.000  H
  H95      1.0000 0.80090  0.17210  0.93990  Biso   1.000  H
  C69      1.0000 0.72440  0.95140  0.85200  Biso   1.000  C
  C70      1.0000 0.81500  0.95900  0.83660  Biso   1.000  C
  H96      1.0000 0.81390  0.96230  0.78520  Biso   1.000  H
  H97      1.0000 0.84260  0.04360  0.85840  Biso   1.000  H
  H98      1.0000 0.84650  0.87610  0.85620  Biso   1.000  H
  C71      1.0000 0.68390  0.80490  0.83380  Biso   1.000  C
  H99      1.0000 0.72090  0.73210  0.85820  Biso   1.000  H
  H100     1.0000 0.62870  0.80070  0.84940  Biso   1.000  H
  H101     1.0000 0.67670  0.78960  0.78250  Biso   1.000  H
  C72      1.0000 0.66860  0.07050  0.81370  Biso   1.000  C
  H102     1.0000 0.66350  0.05840  0.76220  Biso   1.000  H
  H103     1.0000 0.61240  0.06690  0.82730  Biso   1.000  H
  H104     1.0000 0.69480  0.16140  0.82730  Biso   1.000  H
  N7       1.0000 0.88990  0.29750  0.14671  Biso   1.000  N
  N8       1.0000 0.85390  0.03130  0.08152  Biso   1.000  N
  S7       1.0000 0.80904  0.58255  0.09160  Biso   1.000  S
  S8       1.0000 0.72343  0.96446  0.95071  Biso   1.000  S
