data_image0
_cell_length_a       12.482
_cell_length_b       11.464
_cell_length_c       23.561
_cell_angle_alpha    90
_cell_angle_beta     93.501
_cell_angle_gamma    90

_symmetry_space_group_name_H-M    "P 1"
_symmetry_int_tables_number       1

loop_
  _symmetry_equiv_pos_as_xyz
  'x, y, z'

loop_
  _atom_site_label
  _atom_site_occupancy
  _atom_site_fract_x
  _atom_site_fract_y
  _atom_site_fract_z
  _atom_site_thermal_displace_type
  _atom_site_B_iso_or_equiv
  _atom_site_type_symbol
  Sn1      1.0000 0.01630  0.98640  0.07219  Biso   1.000  Sn
  O1       1.0000 0.08930  0.04440  0.99860  Biso   1.000  O
  C1       1.0000 0.96030  0.14530  0.10240  Biso   1.000  C
  H1       1.0000 0.00390  0.20760  0.08820  Biso   1.000  H
  H2       1.0000 0.88740  0.15700  0.08680  Biso   1.000  H
  C2       1.0000 0.96140  0.15580  0.16870  Biso   1.000  C
  H3       1.0000 0.91900  0.09300  0.18330  Biso   1.000  H
  H4       1.0000 0.03450  0.14680  0.18450  Biso   1.000  H
  C3       1.0000 0.91730  0.27200  0.18840  Biso   1.000  C
  H5       1.0000 0.95850  0.33480  0.17280  Biso   1.000  H
  H6       1.0000 0.84360  0.28000  0.17330  Biso   1.000  H
  C4       1.0000 0.92020  0.28500  0.25100  Biso   1.000  C
  H7       1.0000 0.84920  0.27530  0.26380  Biso   1.000  H
  H8       1.0000 0.94650  0.36130  0.26140  Biso   1.000  H
  H9       1.0000 0.96690  0.22690  0.26840  Biso   1.000  H
  C5       1.0000 0.09260  0.82360  0.08500  Biso   1.000  C
  H10      1.0000 0.15870  0.82570  0.06540  Biso   1.000  H
  H11      1.0000 0.11260  0.81660  0.12530  Biso   1.000  H
  H12      1.0000 0.13000  0.09800  0.00400  Biso   1.000  H
  C6       1.0000 0.03560  0.71740  0.06750  Biso   1.000  C
  H13      1.0000 0.96650  0.72000  0.08410  Biso   1.000  H
  H14      1.0000 0.02150  0.72210  0.02660  Biso   1.000  H
  C7       1.0000 0.08000  0.60300  0.07950  Biso   1.000  C
  C8       1.0000 0.13100  0.52300  0.99700  Biso   1.000  C
  C9       1.0000 0.09300  0.73200  0.04000  Biso   1.000  C
  C10      1.0000 0.15000  0.61800  0.06100  Biso   1.000  C
  C11      1.0000 0.20600  0.58600  0.01900  Biso   1.000  C
  H15      1.0000 0.12810  0.76220  0.00750  Biso   1.000  H
  H16      1.0000 0.01900  0.71390  0.02730  Biso   1.000  H
  Sn2      1.0000 0.48370  0.98640  0.92781  Biso   1.000  Sn
  O2       1.0000 0.41070  0.04440  0.00140  Biso   1.000  O
  C12      1.0000 0.53970  0.14530  0.89760  Biso   1.000  C
  H17      1.0000 0.49610  0.20760  0.91180  Biso   1.000  H
  H18      1.0000 0.61260  0.15700  0.91320  Biso   1.000  H
  C13      1.0000 0.53860  0.15580  0.83130  Biso   1.000  C
  H19      1.0000 0.58100  0.09300  0.81670  Biso   1.000  H
  H20      1.0000 0.46550  0.14680  0.81550  Biso   1.000  H
  C14      1.0000 0.58270  0.27200  0.81160  Biso   1.000  C
  H21      1.0000 0.54150  0.33480  0.82720  Biso   1.000  H
  H22      1.0000 0.65640  0.28000  0.82670  Biso   1.000  H
  C15      1.0000 0.57980  0.28500  0.74900  Biso   1.000  C
  H23      1.0000 0.65080  0.27530  0.73620  Biso   1.000  H
  H24      1.0000 0.55350  0.36130  0.73860  Biso   1.000  H
  H25      1.0000 0.53310  0.22690  0.73160  Biso   1.000  H
  C16      1.0000 0.40740  0.82360  0.91500  Biso   1.000  C
  H26      1.0000 0.34130  0.82570  0.93460  Biso   1.000  H
  H27      1.0000 0.38740  0.81660  0.87470  Biso   1.000  H
  H28      1.0000 0.37000  0.09800  0.99600  Biso   1.000  H
  C17      1.0000 0.46440  0.71740  0.93250  Biso   1.000  C
  H29      1.0000 0.53350  0.72000  0.91590  Biso   1.000  H
  H30      1.0000 0.47850  0.72210  0.97340  Biso   1.000  H
  C18      1.0000 0.42000  0.60300  0.92050  Biso   1.000  C
  C19      1.0000 0.36900  0.52300  0.00300  Biso   1.000  C
  C20      1.0000 0.40700  0.73200  0.96000  Biso   1.000  C
  C21      1.0000 0.35000  0.61800  0.93900  Biso   1.000  C
  C22      1.0000 0.29400  0.58600  0.98100  Biso   1.000  C
  H31      1.0000 0.37190  0.76220  0.99250  Biso   1.000  H
  H32      1.0000 0.48100  0.71390  0.97270  Biso   1.000  H
  Sn3      1.0000 0.98370  0.01360  0.92781  Biso   1.000  Sn
  O3       1.0000 0.91070  0.95560  0.00140  Biso   1.000  O
  C23      1.0000 0.03970  0.85470  0.89760  Biso   1.000  C
  H33      1.0000 0.99610  0.79240  0.91180  Biso   1.000  H
  H34      1.0000 0.11260  0.84300  0.91320  Biso   1.000  H
  C24      1.0000 0.03860  0.84420  0.83130  Biso   1.000  C
  H35      1.0000 0.08100  0.90700  0.81670  Biso   1.000  H
  H36      1.0000 0.96550  0.85320  0.81550  Biso   1.000  H
  C25      1.0000 0.08270  0.72800  0.81160  Biso   1.000  C
  H37      1.0000 0.04150  0.66520  0.82720  Biso   1.000  H
  H38      1.0000 0.15640  0.72000  0.82670  Biso   1.000  H
  C26      1.0000 0.07980  0.71500  0.74900  Biso   1.000  C
  H39      1.0000 0.15080  0.72470  0.73620  Biso   1.000  H
  H40      1.0000 0.05350  0.63870  0.73860  Biso   1.000  H
  H41      1.0000 0.03310  0.77310  0.73160  Biso   1.000  H
  C27      1.0000 0.90740  0.17640  0.91500  Biso   1.000  C
  H42      1.0000 0.84130  0.17430  0.93460  Biso   1.000  H
  H43      1.0000 0.88740  0.18340  0.87470  Biso   1.000  H
  H44      1.0000 0.87000  0.90200  0.99600  Biso   1.000  H
  C28      1.0000 0.96440  0.28260  0.93250  Biso   1.000  C
  H45      1.0000 0.03350  0.28000  0.91590  Biso   1.000  H
  H46      1.0000 0.97850  0.27790  0.97340  Biso   1.000  H
  C29      1.0000 0.92000  0.39700  0.92050  Biso   1.000  C
  C30      1.0000 0.86900  0.47700  0.00300  Biso   1.000  C
  C31      1.0000 0.90700  0.26800  0.96000  Biso   1.000  C
  C32      1.0000 0.85000  0.38200  0.93900  Biso   1.000  C
  C33      1.0000 0.79400  0.41400  0.98100  Biso   1.000  C
  H47      1.0000 0.87190  0.23780  0.99250  Biso   1.000  H
  H48      1.0000 0.98100  0.28610  0.97270  Biso   1.000  H
  Sn4      1.0000 0.51630  0.01360  0.07219  Biso   1.000  Sn
  O4       1.0000 0.58930  0.95560  0.99860  Biso   1.000  O
  C34      1.0000 0.46030  0.85470  0.10240  Biso   1.000  C
  H49      1.0000 0.50390  0.79240  0.08820  Biso   1.000  H
  H50      1.0000 0.38740  0.84300  0.08680  Biso   1.000  H
  C35      1.0000 0.46140  0.84420  0.16870  Biso   1.000  C
  H51      1.0000 0.41900  0.90700  0.18330  Biso   1.000  H
  H52      1.0000 0.53450  0.85320  0.18450  Biso   1.000  H
  C36      1.0000 0.41730  0.72800  0.18840  Biso   1.000  C
  H53      1.0000 0.45850  0.66520  0.17280  Biso   1.000  H
  H54      1.0000 0.34360  0.72000  0.17330  Biso   1.000  H
  C37      1.0000 0.42020  0.71500  0.25100  Biso   1.000  C
  H55      1.0000 0.34920  0.72470  0.26380  Biso   1.000  H
  H56      1.0000 0.44650  0.63870  0.26140  Biso   1.000  H
  H57      1.0000 0.46690  0.77310  0.26840  Biso   1.000  H
  C38      1.0000 0.59260  0.17640  0.08500  Biso   1.000  C
  H58      1.0000 0.65870  0.17430  0.06540  Biso   1.000  H
  H59      1.0000 0.61260  0.18340  0.12530  Biso   1.000  H
  H60      1.0000 0.63000  0.90200  0.00400  Biso   1.000  H
  C39      1.0000 0.53560  0.28260  0.06750  Biso   1.000  C
  H61      1.0000 0.46650  0.28000  0.08410  Biso   1.000  H
  H62      1.0000 0.52150  0.27790  0.02660  Biso   1.000  H
  C40      1.0000 0.58000  0.39700  0.07950  Biso   1.000  C
  C41      1.0000 0.63100  0.47700  0.99700  Biso   1.000  C
  C42      1.0000 0.59300  0.26800  0.04000  Biso   1.000  C
  C43      1.0000 0.65000  0.38200  0.06100  Biso   1.000  C
  C44      1.0000 0.70600  0.41400  0.01900  Biso   1.000  C
  H63      1.0000 0.62810  0.23780  0.00750  Biso   1.000  H
  H64      1.0000 0.51900  0.28610  0.02730  Biso   1.000  H
  Sn5      1.0000 0.51630  0.48640  0.57219  Biso   1.000  Sn
  O5       1.0000 0.58930  0.54440  0.49860  Biso   1.000  O
  C45      1.0000 0.46030  0.64530  0.60240  Biso   1.000  C
  H65      1.0000 0.50390  0.70760  0.58820  Biso   1.000  H
  H66      1.0000 0.38740  0.65700  0.58680  Biso   1.000  H
  C46      1.0000 0.46140  0.65580  0.66870  Biso   1.000  C
  H67      1.0000 0.41900  0.59300  0.68330  Biso   1.000  H
  H68      1.0000 0.53450  0.64680  0.68450  Biso   1.000  H
  C47      1.0000 0.41730  0.77200  0.68840  Biso   1.000  C
  H69      1.0000 0.45850  0.83480  0.67280  Biso   1.000  H
  H70      1.0000 0.34360  0.78000  0.67330  Biso   1.000  H
  C48      1.0000 0.42020  0.78500  0.75100  Biso   1.000  C
  H71      1.0000 0.34920  0.77530  0.76380  Biso   1.000  H
  H72      1.0000 0.44650  0.86130  0.76140  Biso   1.000  H
  H73      1.0000 0.46690  0.72690  0.76840  Biso   1.000  H
  C49      1.0000 0.59260  0.32360  0.58500  Biso   1.000  C
  H74      1.0000 0.65870  0.32570  0.56540  Biso   1.000  H
  H75      1.0000 0.61260  0.31660  0.62530  Biso   1.000  H
  H76      1.0000 0.63000  0.59800  0.50400  Biso   1.000  H
  C50      1.0000 0.53560  0.21740  0.56750  Biso   1.000  C
  H77      1.0000 0.46650  0.22000  0.58410  Biso   1.000  H
  H78      1.0000 0.52150  0.22210  0.52660  Biso   1.000  H
  C51      1.0000 0.58000  0.10300  0.57950  Biso   1.000  C
  C52      1.0000 0.63100  0.02300  0.49700  Biso   1.000  C
  C53      1.0000 0.59300  0.23200  0.54000  Biso   1.000  C
  C54      1.0000 0.65000  0.11800  0.56100  Biso   1.000  C
  C55      1.0000 0.70600  0.08600  0.51900  Biso   1.000  C
  H79      1.0000 0.62810  0.26220  0.50750  Biso   1.000  H
  H80      1.0000 0.51900  0.21390  0.52730  Biso   1.000  H
  Sn6      1.0000 0.98370  0.48640  0.42781  Biso   1.000  Sn
  O6       1.0000 0.91070  0.54440  0.50140  Biso   1.000  O
  C56      1.0000 0.03970  0.64530  0.39760  Biso   1.000  C
  H81      1.0000 0.99610  0.70760  0.41180  Biso   1.000  H
  H82      1.0000 0.11260  0.65700  0.41320  Biso   1.000  H
  C57      1.0000 0.03860  0.65580  0.33130  Biso   1.000  C
  H83      1.0000 0.08100  0.59300  0.31670  Biso   1.000  H
  H84      1.0000 0.96550  0.64680  0.31550  Biso   1.000  H
  C58      1.0000 0.08270  0.77200  0.31160  Biso   1.000  C
  H85      1.0000 0.04150  0.83480  0.32720  Biso   1.000  H
  H86      1.0000 0.15640  0.78000  0.32670  Biso   1.000  H
  C59      1.0000 0.07980  0.78500  0.24900  Biso   1.000  C
  H87      1.0000 0.15080  0.77530  0.23620  Biso   1.000  H
  H88      1.0000 0.05350  0.86130  0.23860  Biso   1.000  H
  H89      1.0000 0.03310  0.72690  0.23160  Biso   1.000  H
  C60      1.0000 0.90740  0.32360  0.41500  Biso   1.000  C
  H90      1.0000 0.84130  0.32570  0.43460  Biso   1.000  H
  H91      1.0000 0.88740  0.31660  0.37470  Biso   1.000  H
  H92      1.0000 0.87000  0.59800  0.49600  Biso   1.000  H
  C61      1.0000 0.96440  0.21740  0.43250  Biso   1.000  C
  H93      1.0000 0.03350  0.22000  0.41590  Biso   1.000  H
  H94      1.0000 0.97850  0.22210  0.47340  Biso   1.000  H
  C62      1.0000 0.92000  0.10300  0.42050  Biso   1.000  C
  C63      1.0000 0.86900  0.02300  0.50300  Biso   1.000  C
  C64      1.0000 0.90700  0.23200  0.46000  Biso   1.000  C
  C65      1.0000 0.85000  0.11800  0.43900  Biso   1.000  C
  C66      1.0000 0.79400  0.08600  0.48100  Biso   1.000  C
  H95      1.0000 0.87190  0.26220  0.49250  Biso   1.000  H
  H96      1.0000 0.98100  0.21390  0.47270  Biso   1.000  H
  Sn7      1.0000 0.48370  0.51360  0.42781  Biso   1.000  Sn
  O7       1.0000 0.41070  0.45560  0.50140  Biso   1.000  O
  C67      1.0000 0.53970  0.35470  0.39760  Biso   1.000  C
  H97      1.0000 0.49610  0.29240  0.41180  Biso   1.000  H
  H98      1.0000 0.61260  0.34300  0.41320  Biso   1.000  H
  C68      1.0000 0.53860  0.34420  0.33130  Biso   1.000  C
  H99      1.0000 0.58100  0.40700  0.31670  Biso   1.000  H
  H100     1.0000 0.46550  0.35320  0.31550  Biso   1.000  H
  C69      1.0000 0.58270  0.22800  0.31160  Biso   1.000  C
  H101     1.0000 0.54150  0.16520  0.32720  Biso   1.000  H
  H102     1.0000 0.65640  0.22000  0.32670  Biso   1.000  H
  C70      1.0000 0.57980  0.21500  0.24900  Biso   1.000  C
  H103     1.0000 0.65080  0.22470  0.23620  Biso   1.000  H
  H104     1.0000 0.55350  0.13870  0.23860  Biso   1.000  H
  H105     1.0000 0.53310  0.27310  0.23160  Biso   1.000  H
  C71      1.0000 0.40740  0.67640  0.41500  Biso   1.000  C
  H106     1.0000 0.34130  0.67430  0.43460  Biso   1.000  H
  H107     1.0000 0.38740  0.68340  0.37470  Biso   1.000  H
  H108     1.0000 0.37000  0.40200  0.49600  Biso   1.000  H
  C72      1.0000 0.46440  0.78260  0.43250  Biso   1.000  C
  H109     1.0000 0.53350  0.78000  0.41590  Biso   1.000  H
  H110     1.0000 0.47850  0.77790  0.47340  Biso   1.000  H
  C73      1.0000 0.42000  0.89700  0.42050  Biso   1.000  C
  C74      1.0000 0.36900  0.97700  0.50300  Biso   1.000  C
  C75      1.0000 0.40700  0.76800  0.46000  Biso   1.000  C
  C76      1.0000 0.35000  0.88200  0.43900  Biso   1.000  C
  C77      1.0000 0.29400  0.91400  0.48100  Biso   1.000  C
  H111     1.0000 0.37190  0.73780  0.49250  Biso   1.000  H
  H112     1.0000 0.48100  0.78610  0.47270  Biso   1.000  H
  Sn8      1.0000 0.01630  0.51360  0.57219  Biso   1.000  Sn
  O8       1.0000 0.08930  0.45560  0.49860  Biso   1.000  O
  C78      1.0000 0.96030  0.35470  0.60240  Biso   1.000  C
  H113     1.0000 0.00390  0.29240  0.58820  Biso   1.000  H
  H114     1.0000 0.88740  0.34300  0.58680  Biso   1.000  H
  C79      1.0000 0.96140  0.34420  0.66870  Biso   1.000  C
  H115     1.0000 0.91900  0.40700  0.68330  Biso   1.000  H
  H116     1.0000 0.03450  0.35320  0.68450  Biso   1.000  H
  C80      1.0000 0.91730  0.22800  0.68840  Biso   1.000  C
  H117     1.0000 0.95850  0.16520  0.67280  Biso   1.000  H
  H118     1.0000 0.84360  0.22000  0.67330  Biso   1.000  H
  C81      1.0000 0.92020  0.21500  0.75100  Biso   1.000  C
  H119     1.0000 0.84920  0.22470  0.76380  Biso   1.000  H
  H120     1.0000 0.94650  0.13870  0.76140  Biso   1.000  H
  H121     1.0000 0.96690  0.27310  0.76840  Biso   1.000  H
  C82      1.0000 0.09260  0.67640  0.58500  Biso   1.000  C
  H122     1.0000 0.15870  0.67430  0.56540  Biso   1.000  H
  H123     1.0000 0.11260  0.68340  0.62530  Biso   1.000  H
  H124     1.0000 0.13000  0.40200  0.50400  Biso   1.000  H
  C83      1.0000 0.03560  0.78260  0.56750  Biso   1.000  C
  H125     1.0000 0.96650  0.78000  0.58410  Biso   1.000  H
  H126     1.0000 0.02150  0.77790  0.52660  Biso   1.000  H
  C84      1.0000 0.08000  0.89700  0.57950  Biso   1.000  C
  C85      1.0000 0.13100  0.97700  0.49700  Biso   1.000  C
  C86      1.0000 0.09300  0.76800  0.54000  Biso   1.000  C
  C87      1.0000 0.15000  0.88200  0.56100  Biso   1.000  C
  C88      1.0000 0.20600  0.91400  0.51900  Biso   1.000  C
  H127     1.0000 0.12810  0.73780  0.50750  Biso   1.000  H
  H128     1.0000 0.01900  0.78610  0.52730  Biso   1.000  H
