data_image0
_cell_length_a       16.635
_cell_length_b       12.36
_cell_length_c       10.359
_cell_angle_alpha    90
_cell_angle_beta     91.92
_cell_angle_gamma    90

_symmetry_space_group_name_H-M    "P 1"
_symmetry_int_tables_number       1

loop_
  _symmetry_equiv_pos_as_xyz
  'x, y, z'

loop_
  _atom_site_label
  _atom_site_occupancy
  _atom_site_fract_x
  _atom_site_fract_y
  _atom_site_fract_z
  _atom_site_thermal_displace_type
  _atom_site_B_iso_or_equiv
  _atom_site_type_symbol
  O1       1.0000 0.96500  0.08900  0.08100  Biso   1.000  O
  O2       1.0000 0.98100  0.25500  0.01800  Biso   1.000  O
  C1       1.0000 0.93700  0.17300  0.06100  Biso   1.000  C
  Bi1      1.0000 0.89899  0.12890  0.48670  Biso   1.000  Bi
  O3       1.0000 0.88200  0.21800  0.31500  Biso   1.000  O
  O4       1.0000 0.79100  0.99300  0.15500  Biso   1.000  O
  O5       1.0000 0.87300  0.00600  0.33200  Biso   1.000  O
  O6       1.0000 0.75180  0.13300  0.45700  Biso   1.000  O
  C2       1.0000 0.83100  0.05200  0.23600  Biso   1.000  C
  C3       1.0000 0.82800  0.16400  0.22700  Biso   1.000  C
  C4       1.0000 0.74100  0.20900  0.24500  Biso   1.000  C
  C5       1.0000 0.70700  0.17900  0.37300  Biso   1.000  C
  C6       1.0000 0.85100  0.20400  0.09200  Biso   1.000  C
  H1       1.0000 0.74000  0.30500  0.20300  Biso   1.000  H
  H2       1.0000 0.70900  0.16500  0.17900  Biso   1.000  H
  H3       1.0000 0.85200  0.28700  0.11000  Biso   1.000  H
  H4       1.0000 0.81200  0.16000  0.02500  Biso   1.000  H
  O7       1.0000 0.63530  0.20600  0.39500  Biso   1.000  O
  Bi2      1.0000 0.10101  0.12890  0.01330  Biso   1.000  Bi
  O8       1.0000 0.11800  0.21800  0.18500  Biso   1.000  O
  O9       1.0000 0.20900  0.99300  0.34500  Biso   1.000  O
  O10      1.0000 0.12700  0.00600  0.16800  Biso   1.000  O
  O11      1.0000 0.24820  0.13300  0.04300  Biso   1.000  O
  C7       1.0000 0.16900  0.05200  0.26400  Biso   1.000  C
  C8       1.0000 0.17200  0.16400  0.27300  Biso   1.000  C
  C9       1.0000 0.25900  0.20900  0.25500  Biso   1.000  C
  C10      1.0000 0.29300  0.17900  0.12700  Biso   1.000  C
  C11      1.0000 0.14900  0.20400  0.40800  Biso   1.000  C
  H5       1.0000 0.26000  0.30500  0.29700  Biso   1.000  H
  H6       1.0000 0.29100  0.16500  0.32100  Biso   1.000  H
  H7       1.0000 0.14800  0.28700  0.39000  Biso   1.000  H
  H8       1.0000 0.18800  0.16000  0.47500  Biso   1.000  H
  O12      1.0000 0.03500  0.08900  0.41900  Biso   1.000  O
  O13      1.0000 0.01900  0.25500  0.48200  Biso   1.000  O
  C12      1.0000 0.06300  0.17300  0.43900  Biso   1.000  C
  O14      1.0000 0.36470  0.20600  0.10500  Biso   1.000  O
  O15      1.0000 0.86470  0.29400  0.60500  Biso   1.000  O
  O16      1.0000 0.53500  0.41100  0.91900  Biso   1.000  O
  O17      1.0000 0.51900  0.24500  0.98200  Biso   1.000  O
  C13      1.0000 0.56300  0.32700  0.93900  Biso   1.000  C
  Bi3      1.0000 0.60101  0.37110  0.51330  Biso   1.000  Bi
  O18      1.0000 0.61800  0.28200  0.68500  Biso   1.000  O
  O19      1.0000 0.70900  0.50700  0.84500  Biso   1.000  O
  O20      1.0000 0.62700  0.49400  0.66800  Biso   1.000  O
  O21      1.0000 0.74820  0.36700  0.54300  Biso   1.000  O
  C14      1.0000 0.66900  0.44800  0.76400  Biso   1.000  C
  C15      1.0000 0.67200  0.33600  0.77300  Biso   1.000  C
  C16      1.0000 0.75900  0.29100  0.75500  Biso   1.000  C
  C17      1.0000 0.79300  0.32100  0.62700  Biso   1.000  C
  C18      1.0000 0.64900  0.29600  0.90800  Biso   1.000  C
  H9       1.0000 0.76000  0.19500  0.79700  Biso   1.000  H
  H10      1.0000 0.79100  0.33500  0.82100  Biso   1.000  H
  H11      1.0000 0.64800  0.21300  0.89000  Biso   1.000  H
  H12      1.0000 0.68800  0.34000  0.97500  Biso   1.000  H
  O22      1.0000 0.13530  0.29400  0.89500  Biso   1.000  O
  Bi4      1.0000 0.39899  0.37110  0.98670  Biso   1.000  Bi
  O23      1.0000 0.38200  0.28200  0.81500  Biso   1.000  O
  O24      1.0000 0.29100  0.50700  0.65500  Biso   1.000  O
  O25      1.0000 0.37300  0.49400  0.83200  Biso   1.000  O
  O26      1.0000 0.25180  0.36700  0.95700  Biso   1.000  O
  C19      1.0000 0.33100  0.44800  0.73600  Biso   1.000  C
  C20      1.0000 0.32800  0.33600  0.72700  Biso   1.000  C
  C21      1.0000 0.24100  0.29100  0.74500  Biso   1.000  C
  C22      1.0000 0.20700  0.32100  0.87300  Biso   1.000  C
  C23      1.0000 0.35100  0.29600  0.59200  Biso   1.000  C
  H13      1.0000 0.24000  0.19500  0.70300  Biso   1.000  H
  H14      1.0000 0.20900  0.33500  0.67900  Biso   1.000  H
  H15      1.0000 0.35200  0.21300  0.61000  Biso   1.000  H
  H16      1.0000 0.31200  0.34000  0.52500  Biso   1.000  H
  O27      1.0000 0.46500  0.41100  0.58100  Biso   1.000  O
  O28      1.0000 0.48100  0.24500  0.51800  Biso   1.000  O
  C24      1.0000 0.43700  0.32700  0.56100  Biso   1.000  C
  O29      1.0000 0.46500  0.58900  0.08100  Biso   1.000  O
  O30      1.0000 0.48100  0.75500  0.01800  Biso   1.000  O
  C25      1.0000 0.43700  0.67300  0.06100  Biso   1.000  C
  Bi5      1.0000 0.39899  0.62890  0.48670  Biso   1.000  Bi
  O31      1.0000 0.38200  0.71800  0.31500  Biso   1.000  O
  O32      1.0000 0.29100  0.49300  0.15500  Biso   1.000  O
  O33      1.0000 0.37300  0.50600  0.33200  Biso   1.000  O
  O34      1.0000 0.25180  0.63300  0.45700  Biso   1.000  O
  C26      1.0000 0.33100  0.55200  0.23600  Biso   1.000  C
  C27      1.0000 0.32800  0.66400  0.22700  Biso   1.000  C
  C28      1.0000 0.24100  0.70900  0.24500  Biso   1.000  C
  C29      1.0000 0.20700  0.67900  0.37300  Biso   1.000  C
  C30      1.0000 0.35100  0.70400  0.09200  Biso   1.000  C
  H17      1.0000 0.24000  0.80500  0.20300  Biso   1.000  H
  H18      1.0000 0.20900  0.66500  0.17900  Biso   1.000  H
  H19      1.0000 0.35200  0.78700  0.11000  Biso   1.000  H
  H20      1.0000 0.31200  0.66000  0.02500  Biso   1.000  H
  O35      1.0000 0.13530  0.70600  0.39500  Biso   1.000  O
  Bi6      1.0000 0.60101  0.62890  0.01330  Biso   1.000  Bi
  O36      1.0000 0.61800  0.71800  0.18500  Biso   1.000  O
  O37      1.0000 0.70900  0.49300  0.34500  Biso   1.000  O
  O38      1.0000 0.62700  0.50600  0.16800  Biso   1.000  O
  O39      1.0000 0.74820  0.63300  0.04300  Biso   1.000  O
  C31      1.0000 0.66900  0.55200  0.26400  Biso   1.000  C
  C32      1.0000 0.67200  0.66400  0.27300  Biso   1.000  C
  C33      1.0000 0.75900  0.70900  0.25500  Biso   1.000  C
  C34      1.0000 0.79300  0.67900  0.12700  Biso   1.000  C
  C35      1.0000 0.64900  0.70400  0.40800  Biso   1.000  C
  H21      1.0000 0.76000  0.80500  0.29700  Biso   1.000  H
  H22      1.0000 0.79100  0.66500  0.32100  Biso   1.000  H
  H23      1.0000 0.64800  0.78700  0.39000  Biso   1.000  H
  H24      1.0000 0.68800  0.66000  0.47500  Biso   1.000  H
  O40      1.0000 0.53500  0.58900  0.41900  Biso   1.000  O
  O41      1.0000 0.51900  0.75500  0.48200  Biso   1.000  O
  C36      1.0000 0.56300  0.67300  0.43900  Biso   1.000  C
  O42      1.0000 0.86470  0.70600  0.10500  Biso   1.000  O
  O43      1.0000 0.36470  0.79400  0.60500  Biso   1.000  O
  O44      1.0000 0.03500  0.91100  0.91900  Biso   1.000  O
  O45      1.0000 0.01900  0.74500  0.98200  Biso   1.000  O
  C37      1.0000 0.06300  0.82700  0.93900  Biso   1.000  C
  Bi7      1.0000 0.10101  0.87110  0.51330  Biso   1.000  Bi
  O46      1.0000 0.11800  0.78200  0.68500  Biso   1.000  O
  O47      1.0000 0.20900  0.00700  0.84500  Biso   1.000  O
  O48      1.0000 0.12700  0.99400  0.66800  Biso   1.000  O
  O49      1.0000 0.24820  0.86700  0.54300  Biso   1.000  O
  C38      1.0000 0.16900  0.94800  0.76400  Biso   1.000  C
  C39      1.0000 0.17200  0.83600  0.77300  Biso   1.000  C
  C40      1.0000 0.25900  0.79100  0.75500  Biso   1.000  C
  C41      1.0000 0.29300  0.82100  0.62700  Biso   1.000  C
  C42      1.0000 0.14900  0.79600  0.90800  Biso   1.000  C
  H25      1.0000 0.26000  0.69500  0.79700  Biso   1.000  H
  H26      1.0000 0.29100  0.83500  0.82100  Biso   1.000  H
  H27      1.0000 0.14800  0.71300  0.89000  Biso   1.000  H
  H28      1.0000 0.18800  0.84000  0.97500  Biso   1.000  H
  O50      1.0000 0.63530  0.79400  0.89500  Biso   1.000  O
  Bi8      1.0000 0.89899  0.87110  0.98670  Biso   1.000  Bi
  O51      1.0000 0.88200  0.78200  0.81500  Biso   1.000  O
  O52      1.0000 0.79100  0.00700  0.65500  Biso   1.000  O
  O53      1.0000 0.87300  0.99400  0.83200  Biso   1.000  O
  O54      1.0000 0.75180  0.86700  0.95700  Biso   1.000  O
  C43      1.0000 0.83100  0.94800  0.73600  Biso   1.000  C
  C44      1.0000 0.82800  0.83600  0.72700  Biso   1.000  C
  C45      1.0000 0.74100  0.79100  0.74500  Biso   1.000  C
  C46      1.0000 0.70700  0.82100  0.87300  Biso   1.000  C
  C47      1.0000 0.85100  0.79600  0.59200  Biso   1.000  C
  H29      1.0000 0.74000  0.69500  0.70300  Biso   1.000  H
  H30      1.0000 0.70900  0.83500  0.67900  Biso   1.000  H
  H31      1.0000 0.85200  0.71300  0.61000  Biso   1.000  H
  H32      1.0000 0.81200  0.84000  0.52500  Biso   1.000  H
  O55      1.0000 0.96500  0.91100  0.58100  Biso   1.000  O
  O56      1.0000 0.98100  0.74500  0.51800  Biso   1.000  O
  C48      1.0000 0.93700  0.82700  0.56100  Biso   1.000  C
