data_image0
_cell_length_a       36.662
_cell_length_b       37.055
_cell_length_c       5.1092
_cell_angle_alpha    90
_cell_angle_beta     90
_cell_angle_gamma    90

_symmetry_space_group_name_H-M    "P 1"
_symmetry_int_tables_number       1

loop_
  _symmetry_equiv_pos_as_xyz
  'x, y, z'

loop_
  _atom_site_label
  _atom_site_occupancy
  _atom_site_fract_x
  _atom_site_fract_y
  _atom_site_fract_z
  _atom_site_thermal_displace_type
  _atom_site_B_iso_or_equiv
  _atom_site_type_symbol
  S1       1.0000 0.52234  0.60900  0.98570  Biso   1.000  S
  N1       1.0000 0.45629  0.51067  0.32950  Biso   1.000  N
  C1       1.0000 0.43670  0.48530  0.22100  Biso   1.000  C
  H1       1.0000 0.44120  0.46110  0.27320  Biso   1.000  H
  C2       1.0000 0.41000  0.49140  0.03700  Biso   1.000  C
  H2       1.0000 0.39710  0.47170  0.96190  Biso   1.000  H
  C3       1.0000 0.40180  0.52640  0.96030  Biso   1.000  C
  C4       1.0000 0.42210  0.55390  0.08100  Biso   1.000  C
  H3       1.0000 0.41790  0.57850  0.03850  Biso   1.000  H
  C5       1.0000 0.44840  0.54420  0.26400  Biso   1.000  C
  H4       1.0000 0.46170  0.56300  0.34670  Biso   1.000  H
  C6       1.0000 0.37520  0.53540  0.75860  Biso   1.000  C
  H5       1.0000 0.37140  0.56040  0.72810  Biso   1.000  H
  C7       1.0000 0.35670  0.51430  0.62000  Biso   1.000  C
  H6       1.0000 0.36100  0.48920  0.64520  Biso   1.000  H
  C8       1.0000 0.32860  0.52400  0.42000  Biso   1.000  C
  C9       1.0000 0.31360  0.49590  0.27000  Biso   1.000  C
  H7       1.0000 0.32100  0.47170  0.30040  Biso   1.000  H
  C10      1.0000 0.28830  0.50330  0.07900  Biso   1.000  C
  H8       1.0000 0.27860  0.48460  0.97290  Biso   1.000  H
  C11      1.0000 0.27670  0.54060  0.04400  Biso   1.000  C
  H9       1.0000 0.25890  0.54670  0.91580  Biso   1.000  H
  C12      1.0000 0.29150  0.56590  0.19300  Biso   1.000  C
  H10      1.0000 0.28470  0.59040  0.16770  Biso   1.000  H
  C13      1.0000 0.31610  0.55750  0.38300  Biso   1.000  C
  H11      1.0000 0.32480  0.57620  0.49390  Biso   1.000  H
  N2       1.0000 0.50990  0.54420  0.74100  Biso   1.000  N
  C14      1.0000 0.51470  0.57180  0.83700  Biso   1.000  C
  S2       1.0000 0.47766  0.39100  0.98570  Biso   1.000  S
  N3       1.0000 0.54371  0.48933  0.32950  Biso   1.000  N
  C15      1.0000 0.56330  0.51470  0.22100  Biso   1.000  C
  H12      1.0000 0.55880  0.53890  0.27320  Biso   1.000  H
  C16      1.0000 0.59000  0.50860  0.03700  Biso   1.000  C
  H13      1.0000 0.60290  0.52830  0.96190  Biso   1.000  H
  C17      1.0000 0.59820  0.47360  0.96030  Biso   1.000  C
  C18      1.0000 0.57790  0.44610  0.08100  Biso   1.000  C
  H14      1.0000 0.58210  0.42150  0.03850  Biso   1.000  H
  C19      1.0000 0.55160  0.45580  0.26400  Biso   1.000  C
  H15      1.0000 0.53830  0.43700  0.34670  Biso   1.000  H
  C20      1.0000 0.62480  0.46460  0.75860  Biso   1.000  C
  H16      1.0000 0.62860  0.43960  0.72810  Biso   1.000  H
  C21      1.0000 0.64330  0.48570  0.62000  Biso   1.000  C
  H17      1.0000 0.63900  0.51080  0.64520  Biso   1.000  H
  C22      1.0000 0.67140  0.47600  0.42000  Biso   1.000  C
  C23      1.0000 0.68640  0.50410  0.27000  Biso   1.000  C
  H18      1.0000 0.67900  0.52830  0.30040  Biso   1.000  H
  C24      1.0000 0.71170  0.49670  0.07900  Biso   1.000  C
  H19      1.0000 0.72140  0.51540  0.97290  Biso   1.000  H
  C25      1.0000 0.72330  0.45940  0.04400  Biso   1.000  C
  H20      1.0000 0.74110  0.45330  0.91580  Biso   1.000  H
  C26      1.0000 0.70850  0.43410  0.19300  Biso   1.000  C
  H21      1.0000 0.71530  0.40960  0.16770  Biso   1.000  H
  C27      1.0000 0.68390  0.44250  0.38300  Biso   1.000  C
  H22      1.0000 0.67520  0.42380  0.49390  Biso   1.000  H
  N4       1.0000 0.49010  0.45580  0.74100  Biso   1.000  N
  C28      1.0000 0.48530  0.42820  0.83700  Biso   1.000  C
  Zn1      1.0000 0.50000  0.50000  0.56060  Biso   1.000  Zn
  S3       1.0000 0.52234  0.10900  0.48570  Biso   1.000  S
  N5       1.0000 0.45629  0.01067  0.82950  Biso   1.000  N
  C29      1.0000 0.43670  0.98530  0.72100  Biso   1.000  C
  H23      1.0000 0.44120  0.96110  0.77320  Biso   1.000  H
  C30      1.0000 0.41000  0.99140  0.53700  Biso   1.000  C
  H24      1.0000 0.39710  0.97170  0.46190  Biso   1.000  H
  C31      1.0000 0.40180  0.02640  0.46030  Biso   1.000  C
  C32      1.0000 0.42210  0.05390  0.58100  Biso   1.000  C
  H25      1.0000 0.41790  0.07850  0.53850  Biso   1.000  H
  C33      1.0000 0.44840  0.04420  0.76400  Biso   1.000  C
  H26      1.0000 0.46170  0.06300  0.84670  Biso   1.000  H
  C34      1.0000 0.37520  0.03540  0.25860  Biso   1.000  C
  H27      1.0000 0.37140  0.06040  0.22810  Biso   1.000  H
  C35      1.0000 0.35670  0.01430  0.12000  Biso   1.000  C
  H28      1.0000 0.36100  0.98920  0.14520  Biso   1.000  H
  C36      1.0000 0.32860  0.02400  0.92000  Biso   1.000  C
  C37      1.0000 0.31360  0.99590  0.77000  Biso   1.000  C
  H29      1.0000 0.32100  0.97170  0.80040  Biso   1.000  H
  C38      1.0000 0.28830  0.00330  0.57900  Biso   1.000  C
  H30      1.0000 0.27860  0.98460  0.47290  Biso   1.000  H
  C39      1.0000 0.27670  0.04060  0.54400  Biso   1.000  C
  H31      1.0000 0.25890  0.04670  0.41580  Biso   1.000  H
  C40      1.0000 0.29150  0.06590  0.69300  Biso   1.000  C
  H32      1.0000 0.28470  0.09040  0.66770  Biso   1.000  H
  C41      1.0000 0.31610  0.05750  0.88300  Biso   1.000  C
  H33      1.0000 0.32480  0.07620  0.99390  Biso   1.000  H
  N6       1.0000 0.50990  0.04420  0.24100  Biso   1.000  N
  C42      1.0000 0.51470  0.07180  0.33700  Biso   1.000  C
  S4       1.0000 0.47766  0.89100  0.48570  Biso   1.000  S
  N7       1.0000 0.54371  0.98933  0.82950  Biso   1.000  N
  C43      1.0000 0.56330  0.01470  0.72100  Biso   1.000  C
  H34      1.0000 0.55880  0.03890  0.77320  Biso   1.000  H
  C44      1.0000 0.59000  0.00860  0.53700  Biso   1.000  C
  H35      1.0000 0.60290  0.02830  0.46190  Biso   1.000  H
  C45      1.0000 0.59820  0.97360  0.46030  Biso   1.000  C
  C46      1.0000 0.57790  0.94610  0.58100  Biso   1.000  C
  H36      1.0000 0.58210  0.92150  0.53850  Biso   1.000  H
  C47      1.0000 0.55160  0.95580  0.76400  Biso   1.000  C
  H37      1.0000 0.53830  0.93700  0.84670  Biso   1.000  H
  C48      1.0000 0.62480  0.96460  0.25860  Biso   1.000  C
  H38      1.0000 0.62860  0.93960  0.22810  Biso   1.000  H
  C49      1.0000 0.64330  0.98570  0.12000  Biso   1.000  C
  H39      1.0000 0.63900  0.01080  0.14520  Biso   1.000  H
  C50      1.0000 0.67140  0.97600  0.92000  Biso   1.000  C
  C51      1.0000 0.68640  0.00410  0.77000  Biso   1.000  C
  H40      1.0000 0.67900  0.02830  0.80040  Biso   1.000  H
  C52      1.0000 0.71170  0.99670  0.57900  Biso   1.000  C
  H41      1.0000 0.72140  0.01540  0.47290  Biso   1.000  H
  C53      1.0000 0.72330  0.95940  0.54400  Biso   1.000  C
  H42      1.0000 0.74110  0.95330  0.41580  Biso   1.000  H
  C54      1.0000 0.70850  0.93410  0.69300  Biso   1.000  C
  H43      1.0000 0.71530  0.90960  0.66770  Biso   1.000  H
  C55      1.0000 0.68390  0.94250  0.88300  Biso   1.000  C
  H44      1.0000 0.67520  0.92380  0.99390  Biso   1.000  H
  N8       1.0000 0.49010  0.95580  0.24100  Biso   1.000  N
  C56      1.0000 0.48530  0.92820  0.33700  Biso   1.000  C
  Zn2      1.0000 0.50000  0.00000  0.06060  Biso   1.000  Zn
  S5       1.0000 0.02234  0.60900  0.48570  Biso   1.000  S
  N9       1.0000 0.95629  0.51067  0.82950  Biso   1.000  N
  C57      1.0000 0.93670  0.48530  0.72100  Biso   1.000  C
  H45      1.0000 0.94120  0.46110  0.77320  Biso   1.000  H
  C58      1.0000 0.91000  0.49140  0.53700  Biso   1.000  C
  H46      1.0000 0.89710  0.47170  0.46190  Biso   1.000  H
  C59      1.0000 0.90180  0.52640  0.46030  Biso   1.000  C
  C60      1.0000 0.92210  0.55390  0.58100  Biso   1.000  C
  H47      1.0000 0.91790  0.57850  0.53850  Biso   1.000  H
  C61      1.0000 0.94840  0.54420  0.76400  Biso   1.000  C
  H48      1.0000 0.96170  0.56300  0.84670  Biso   1.000  H
  C62      1.0000 0.87520  0.53540  0.25860  Biso   1.000  C
  H49      1.0000 0.87140  0.56040  0.22810  Biso   1.000  H
  C63      1.0000 0.85670  0.51430  0.12000  Biso   1.000  C
  H50      1.0000 0.86100  0.48920  0.14520  Biso   1.000  H
  C64      1.0000 0.82860  0.52400  0.92000  Biso   1.000  C
  C65      1.0000 0.81360  0.49590  0.77000  Biso   1.000  C
  H51      1.0000 0.82100  0.47170  0.80040  Biso   1.000  H
  C66      1.0000 0.78830  0.50330  0.57900  Biso   1.000  C
  H52      1.0000 0.77860  0.48460  0.47290  Biso   1.000  H
  C67      1.0000 0.77670  0.54060  0.54400  Biso   1.000  C
  H53      1.0000 0.75890  0.54670  0.41580  Biso   1.000  H
  C68      1.0000 0.79150  0.56590  0.69300  Biso   1.000  C
  H54      1.0000 0.78470  0.59040  0.66770  Biso   1.000  H
  C69      1.0000 0.81610  0.55750  0.88300  Biso   1.000  C
  H55      1.0000 0.82480  0.57620  0.99390  Biso   1.000  H
  N10      1.0000 0.00990  0.54420  0.24100  Biso   1.000  N
  C70      1.0000 0.01470  0.57180  0.33700  Biso   1.000  C
  S6       1.0000 0.97766  0.39100  0.48570  Biso   1.000  S
  N11      1.0000 0.04371  0.48933  0.82950  Biso   1.000  N
  C71      1.0000 0.06330  0.51470  0.72100  Biso   1.000  C
  H56      1.0000 0.05880  0.53890  0.77320  Biso   1.000  H
  C72      1.0000 0.09000  0.50860  0.53700  Biso   1.000  C
  H57      1.0000 0.10290  0.52830  0.46190  Biso   1.000  H
  C73      1.0000 0.09820  0.47360  0.46030  Biso   1.000  C
  C74      1.0000 0.07790  0.44610  0.58100  Biso   1.000  C
  H58      1.0000 0.08210  0.42150  0.53850  Biso   1.000  H
  C75      1.0000 0.05160  0.45580  0.76400  Biso   1.000  C
  H59      1.0000 0.03830  0.43700  0.84670  Biso   1.000  H
  C76      1.0000 0.12480  0.46460  0.25860  Biso   1.000  C
  H60      1.0000 0.12860  0.43960  0.22810  Biso   1.000  H
  C77      1.0000 0.14330  0.48570  0.12000  Biso   1.000  C
  H61      1.0000 0.13900  0.51080  0.14520  Biso   1.000  H
  C78      1.0000 0.17140  0.47600  0.92000  Biso   1.000  C
  C79      1.0000 0.18640  0.50410  0.77000  Biso   1.000  C
  H62      1.0000 0.17900  0.52830  0.80040  Biso   1.000  H
  C80      1.0000 0.21170  0.49670  0.57900  Biso   1.000  C
  H63      1.0000 0.22140  0.51540  0.47290  Biso   1.000  H
  C81      1.0000 0.22330  0.45940  0.54400  Biso   1.000  C
  H64      1.0000 0.24110  0.45330  0.41580  Biso   1.000  H
  C82      1.0000 0.20850  0.43410  0.69300  Biso   1.000  C
  H65      1.0000 0.21530  0.40960  0.66770  Biso   1.000  H
  C83      1.0000 0.18390  0.44250  0.88300  Biso   1.000  C
  H66      1.0000 0.17520  0.42380  0.99390  Biso   1.000  H
  N12      1.0000 0.99010  0.45580  0.24100  Biso   1.000  N
  C84      1.0000 0.98530  0.42820  0.33700  Biso   1.000  C
  Zn3      1.0000 0.00000  0.50000  0.06060  Biso   1.000  Zn
  S7       1.0000 0.02234  0.10900  0.98570  Biso   1.000  S
  N13      1.0000 0.95629  0.01067  0.32950  Biso   1.000  N
  C85      1.0000 0.93670  0.98530  0.22100  Biso   1.000  C
  H67      1.0000 0.94120  0.96110  0.27320  Biso   1.000  H
  C86      1.0000 0.91000  0.99140  0.03700  Biso   1.000  C
  H68      1.0000 0.89710  0.97170  0.96190  Biso   1.000  H
  C87      1.0000 0.90180  0.02640  0.96030  Biso   1.000  C
  C88      1.0000 0.92210  0.05390  0.08100  Biso   1.000  C
  H69      1.0000 0.91790  0.07850  0.03850  Biso   1.000  H
  C89      1.0000 0.94840  0.04420  0.26400  Biso   1.000  C
  H70      1.0000 0.96170  0.06300  0.34670  Biso   1.000  H
  C90      1.0000 0.87520  0.03540  0.75860  Biso   1.000  C
  H71      1.0000 0.87140  0.06040  0.72810  Biso   1.000  H
  C91      1.0000 0.85670  0.01430  0.62000  Biso   1.000  C
  H72      1.0000 0.86100  0.98920  0.64520  Biso   1.000  H
  C92      1.0000 0.82860  0.02400  0.42000  Biso   1.000  C
  C93      1.0000 0.81360  0.99590  0.27000  Biso   1.000  C
  H73      1.0000 0.82100  0.97170  0.30040  Biso   1.000  H
  C94      1.0000 0.78830  0.00330  0.07900  Biso   1.000  C
  H74      1.0000 0.77860  0.98460  0.97290  Biso   1.000  H
  C95      1.0000 0.77670  0.04060  0.04400  Biso   1.000  C
  H75      1.0000 0.75890  0.04670  0.91580  Biso   1.000  H
  C96      1.0000 0.79150  0.06590  0.19300  Biso   1.000  C
  H76      1.0000 0.78470  0.09040  0.16770  Biso   1.000  H
  C97      1.0000 0.81610  0.05750  0.38300  Biso   1.000  C
  H77      1.0000 0.82480  0.07620  0.49390  Biso   1.000  H
  N14      1.0000 0.00990  0.04420  0.74100  Biso   1.000  N
  C98      1.0000 0.01470  0.07180  0.83700  Biso   1.000  C
  S8       1.0000 0.97766  0.89100  0.98570  Biso   1.000  S
  N15      1.0000 0.04371  0.98933  0.32950  Biso   1.000  N
  C99      1.0000 0.06330  0.01470  0.22100  Biso   1.000  C
  H78      1.0000 0.05880  0.03890  0.27320  Biso   1.000  H
  C100     1.0000 0.09000  0.00860  0.03700  Biso   1.000  C
  H79      1.0000 0.10290  0.02830  0.96190  Biso   1.000  H
  C101     1.0000 0.09820  0.97360  0.96030  Biso   1.000  C
  C102     1.0000 0.07790  0.94610  0.08100  Biso   1.000  C
  H80      1.0000 0.08210  0.92150  0.03850  Biso   1.000  H
  C103     1.0000 0.05160  0.95580  0.26400  Biso   1.000  C
  H81      1.0000 0.03830  0.93700  0.34670  Biso   1.000  H
  C104     1.0000 0.12480  0.96460  0.75860  Biso   1.000  C
  H82      1.0000 0.12860  0.93960  0.72810  Biso   1.000  H
  C105     1.0000 0.14330  0.98570  0.62000  Biso   1.000  C
  H83      1.0000 0.13900  0.01080  0.64520  Biso   1.000  H
  C106     1.0000 0.17140  0.97600  0.42000  Biso   1.000  C
  C107     1.0000 0.18640  0.00410  0.27000  Biso   1.000  C
  H84      1.0000 0.17900  0.02830  0.30040  Biso   1.000  H
  C108     1.0000 0.21170  0.99670  0.07900  Biso   1.000  C
  H85      1.0000 0.22140  0.01540  0.97290  Biso   1.000  H
  C109     1.0000 0.22330  0.95940  0.04400  Biso   1.000  C
  H86      1.0000 0.24110  0.95330  0.91580  Biso   1.000  H
  C110     1.0000 0.20850  0.93410  0.19300  Biso   1.000  C
  H87      1.0000 0.21530  0.90960  0.16770  Biso   1.000  H
  C111     1.0000 0.18390  0.94250  0.38300  Biso   1.000  C
  H88      1.0000 0.17520  0.92380  0.49390  Biso   1.000  H
  N16      1.0000 0.99010  0.95580  0.74100  Biso   1.000  N
  C112     1.0000 0.98530  0.92820  0.83700  Biso   1.000  C
  Zn4      1.0000 0.00000  0.00000  0.56060  Biso   1.000  Zn
  S9       1.0000 0.77234  0.64100  0.23570  Biso   1.000  S
  N17      1.0000 0.70629  0.73933  0.57950  Biso   1.000  N
  C113     1.0000 0.68670  0.76470  0.47100  Biso   1.000  C
  H89      1.0000 0.69120  0.78890  0.52320  Biso   1.000  H
  C114     1.0000 0.66000  0.75860  0.28700  Biso   1.000  C
  H90      1.0000 0.64710  0.77830  0.21190  Biso   1.000  H
  C115     1.0000 0.65180  0.72360  0.21030  Biso   1.000  C
  C116     1.0000 0.67210  0.69610  0.33100  Biso   1.000  C
  H91      1.0000 0.66790  0.67150  0.28850  Biso   1.000  H
  C117     1.0000 0.69840  0.70580  0.51400  Biso   1.000  C
  H92      1.0000 0.71170  0.68700  0.59670  Biso   1.000  H
  C118     1.0000 0.62520  0.71460  0.00860  Biso   1.000  C
  H93      1.0000 0.62140  0.68960  0.97810  Biso   1.000  H
  C119     1.0000 0.60670  0.73570  0.87000  Biso   1.000  C
  H94      1.0000 0.61100  0.76080  0.89520  Biso   1.000  H
  C120     1.0000 0.57860  0.72600  0.67000  Biso   1.000  C
  C121     1.0000 0.56360  0.75410  0.52000  Biso   1.000  C
  H95      1.0000 0.57100  0.77830  0.55040  Biso   1.000  H
  C122     1.0000 0.53830  0.74670  0.32900  Biso   1.000  C
  H96      1.0000 0.52860  0.76540  0.22290  Biso   1.000  H
  C123     1.0000 0.52670  0.70940  0.29400  Biso   1.000  C
  H97      1.0000 0.50890  0.70330  0.16580  Biso   1.000  H
  C124     1.0000 0.54150  0.68410  0.44300  Biso   1.000  C
  H98      1.0000 0.53470  0.65960  0.41770  Biso   1.000  H
  C125     1.0000 0.56610  0.69250  0.63300  Biso   1.000  C
  H99      1.0000 0.57480  0.67380  0.74390  Biso   1.000  H
  N18      1.0000 0.75990  0.70580  0.99100  Biso   1.000  N
  C126     1.0000 0.76470  0.67820  0.08700  Biso   1.000  C
  S10      1.0000 0.72766  0.85900  0.23570  Biso   1.000  S
  N19      1.0000 0.79371  0.76067  0.57950  Biso   1.000  N
  C127     1.0000 0.81330  0.73530  0.47100  Biso   1.000  C
  H100     1.0000 0.80880  0.71110  0.52320  Biso   1.000  H
  C128     1.0000 0.84000  0.74140  0.28700  Biso   1.000  C
  H101     1.0000 0.85290  0.72170  0.21190  Biso   1.000  H
  C129     1.0000 0.84820  0.77640  0.21030  Biso   1.000  C
  C130     1.0000 0.82790  0.80390  0.33100  Biso   1.000  C
  H102     1.0000 0.83210  0.82850  0.28850  Biso   1.000  H
  C131     1.0000 0.80160  0.79420  0.51400  Biso   1.000  C
  H103     1.0000 0.78830  0.81300  0.59670  Biso   1.000  H
  C132     1.0000 0.87480  0.78540  0.00860  Biso   1.000  C
  H104     1.0000 0.87860  0.81040  0.97810  Biso   1.000  H
  C133     1.0000 0.89330  0.76430  0.87000  Biso   1.000  C
  H105     1.0000 0.88900  0.73920  0.89520  Biso   1.000  H
  C134     1.0000 0.92140  0.77400  0.67000  Biso   1.000  C
  C135     1.0000 0.93640  0.74590  0.52000  Biso   1.000  C
  H106     1.0000 0.92900  0.72170  0.55040  Biso   1.000  H
  C136     1.0000 0.96170  0.75330  0.32900  Biso   1.000  C
  H107     1.0000 0.97140  0.73460  0.22290  Biso   1.000  H
  C137     1.0000 0.97330  0.79060  0.29400  Biso   1.000  C
  H108     1.0000 0.99110  0.79670  0.16580  Biso   1.000  H
  C138     1.0000 0.95850  0.81590  0.44300  Biso   1.000  C
  H109     1.0000 0.96530  0.84040  0.41770  Biso   1.000  H
  C139     1.0000 0.93390  0.80750  0.63300  Biso   1.000  C
  H110     1.0000 0.92520  0.82620  0.74390  Biso   1.000  H
  N20      1.0000 0.74010  0.79420  0.99100  Biso   1.000  N
  C140     1.0000 0.73530  0.82180  0.08700  Biso   1.000  C
  Zn5      1.0000 0.75000  0.75000  0.81060  Biso   1.000  Zn
  S11      1.0000 0.77234  0.14100  0.73570  Biso   1.000  S
  N21      1.0000 0.70629  0.23933  0.07950  Biso   1.000  N
  C141     1.0000 0.68670  0.26470  0.97100  Biso   1.000  C
  H111     1.0000 0.69120  0.28890  0.02320  Biso   1.000  H
  C142     1.0000 0.66000  0.25860  0.78700  Biso   1.000  C
  H112     1.0000 0.64710  0.27830  0.71190  Biso   1.000  H
  C143     1.0000 0.65180  0.22360  0.71030  Biso   1.000  C
  C144     1.0000 0.67210  0.19610  0.83100  Biso   1.000  C
  H113     1.0000 0.66790  0.17150  0.78850  Biso   1.000  H
  C145     1.0000 0.69840  0.20580  0.01400  Biso   1.000  C
  H114     1.0000 0.71170  0.18700  0.09670  Biso   1.000  H
  C146     1.0000 0.62520  0.21460  0.50860  Biso   1.000  C
  H115     1.0000 0.62140  0.18960  0.47810  Biso   1.000  H
  C147     1.0000 0.60670  0.23570  0.37000  Biso   1.000  C
  H116     1.0000 0.61100  0.26080  0.39520  Biso   1.000  H
  C148     1.0000 0.57860  0.22600  0.17000  Biso   1.000  C
  C149     1.0000 0.56360  0.25410  0.02000  Biso   1.000  C
  H117     1.0000 0.57100  0.27830  0.05040  Biso   1.000  H
  C150     1.0000 0.53830  0.24670  0.82900  Biso   1.000  C
  H118     1.0000 0.52860  0.26540  0.72290  Biso   1.000  H
  C151     1.0000 0.52670  0.20940  0.79400  Biso   1.000  C
  H119     1.0000 0.50890  0.20330  0.66580  Biso   1.000  H
  C152     1.0000 0.54150  0.18410  0.94300  Biso   1.000  C
  H120     1.0000 0.53470  0.15960  0.91770  Biso   1.000  H
  C153     1.0000 0.56610  0.19250  0.13300  Biso   1.000  C
  H121     1.0000 0.57480  0.17380  0.24390  Biso   1.000  H
  N22      1.0000 0.75990  0.20580  0.49100  Biso   1.000  N
  C154     1.0000 0.76470  0.17820  0.58700  Biso   1.000  C
  S12      1.0000 0.72766  0.35900  0.73570  Biso   1.000  S
  N23      1.0000 0.79371  0.26067  0.07950  Biso   1.000  N
  C155     1.0000 0.81330  0.23530  0.97100  Biso   1.000  C
  H122     1.0000 0.80880  0.21110  0.02320  Biso   1.000  H
  C156     1.0000 0.84000  0.24140  0.78700  Biso   1.000  C
  H123     1.0000 0.85290  0.22170  0.71190  Biso   1.000  H
  C157     1.0000 0.84820  0.27640  0.71030  Biso   1.000  C
  C158     1.0000 0.82790  0.30390  0.83100  Biso   1.000  C
  H124     1.0000 0.83210  0.32850  0.78850  Biso   1.000  H
  C159     1.0000 0.80160  0.29420  0.01400  Biso   1.000  C
  H125     1.0000 0.78830  0.31300  0.09670  Biso   1.000  H
  C160     1.0000 0.87480  0.28540  0.50860  Biso   1.000  C
  H126     1.0000 0.87860  0.31040  0.47810  Biso   1.000  H
  C161     1.0000 0.89330  0.26430  0.37000  Biso   1.000  C
  H127     1.0000 0.88900  0.23920  0.39520  Biso   1.000  H
  C162     1.0000 0.92140  0.27400  0.17000  Biso   1.000  C
  C163     1.0000 0.93640  0.24590  0.02000  Biso   1.000  C
  H128     1.0000 0.92900  0.22170  0.05040  Biso   1.000  H
  C164     1.0000 0.96170  0.25330  0.82900  Biso   1.000  C
  H129     1.0000 0.97140  0.23460  0.72290  Biso   1.000  H
  C165     1.0000 0.97330  0.29060  0.79400  Biso   1.000  C
  H130     1.0000 0.99110  0.29670  0.66580  Biso   1.000  H
  C166     1.0000 0.95850  0.31590  0.94300  Biso   1.000  C
  H131     1.0000 0.96530  0.34040  0.91770  Biso   1.000  H
  C167     1.0000 0.93390  0.30750  0.13300  Biso   1.000  C
  H132     1.0000 0.92520  0.32620  0.24390  Biso   1.000  H
  N24      1.0000 0.74010  0.29420  0.49100  Biso   1.000  N
  C168     1.0000 0.73530  0.32180  0.58700  Biso   1.000  C
  Zn6      1.0000 0.75000  0.25000  0.31060  Biso   1.000  Zn
  S13      1.0000 0.27234  0.64100  0.73570  Biso   1.000  S
  N25      1.0000 0.20629  0.73933  0.07950  Biso   1.000  N
  C169     1.0000 0.18670  0.76470  0.97100  Biso   1.000  C
  H133     1.0000 0.19120  0.78890  0.02320  Biso   1.000  H
  C170     1.0000 0.16000  0.75860  0.78700  Biso   1.000  C
  H134     1.0000 0.14710  0.77830  0.71190  Biso   1.000  H
  C171     1.0000 0.15180  0.72360  0.71030  Biso   1.000  C
  C172     1.0000 0.17210  0.69610  0.83100  Biso   1.000  C
  H135     1.0000 0.16790  0.67150  0.78850  Biso   1.000  H
  C173     1.0000 0.19840  0.70580  0.01400  Biso   1.000  C
  H136     1.0000 0.21170  0.68700  0.09670  Biso   1.000  H
  C174     1.0000 0.12520  0.71460  0.50860  Biso   1.000  C
  H137     1.0000 0.12140  0.68960  0.47810  Biso   1.000  H
  C175     1.0000 0.10670  0.73570  0.37000  Biso   1.000  C
  H138     1.0000 0.11100  0.76080  0.39520  Biso   1.000  H
  C176     1.0000 0.07860  0.72600  0.17000  Biso   1.000  C
  C177     1.0000 0.06360  0.75410  0.02000  Biso   1.000  C
  H139     1.0000 0.07100  0.77830  0.05040  Biso   1.000  H
  C178     1.0000 0.03830  0.74670  0.82900  Biso   1.000  C
  H140     1.0000 0.02860  0.76540  0.72290  Biso   1.000  H
  C179     1.0000 0.02670  0.70940  0.79400  Biso   1.000  C
  H141     1.0000 0.00890  0.70330  0.66580  Biso   1.000  H
  C180     1.0000 0.04150  0.68410  0.94300  Biso   1.000  C
  H142     1.0000 0.03470  0.65960  0.91770  Biso   1.000  H
  C181     1.0000 0.06610  0.69250  0.13300  Biso   1.000  C
  H143     1.0000 0.07480  0.67380  0.24390  Biso   1.000  H
  N26      1.0000 0.25990  0.70580  0.49100  Biso   1.000  N
  C182     1.0000 0.26470  0.67820  0.58700  Biso   1.000  C
  S14      1.0000 0.22766  0.85900  0.73570  Biso   1.000  S
  N27      1.0000 0.29371  0.76067  0.07950  Biso   1.000  N
  C183     1.0000 0.31330  0.73530  0.97100  Biso   1.000  C
  H144     1.0000 0.30880  0.71110  0.02320  Biso   1.000  H
  C184     1.0000 0.34000  0.74140  0.78700  Biso   1.000  C
  H145     1.0000 0.35290  0.72170  0.71190  Biso   1.000  H
  C185     1.0000 0.34820  0.77640  0.71030  Biso   1.000  C
  C186     1.0000 0.32790  0.80390  0.83100  Biso   1.000  C
  H146     1.0000 0.33210  0.82850  0.78850  Biso   1.000  H
  C187     1.0000 0.30160  0.79420  0.01400  Biso   1.000  C
  H147     1.0000 0.28830  0.81300  0.09670  Biso   1.000  H
  C188     1.0000 0.37480  0.78540  0.50860  Biso   1.000  C
  H148     1.0000 0.37860  0.81040  0.47810  Biso   1.000  H
  C189     1.0000 0.39330  0.76430  0.37000  Biso   1.000  C
  H149     1.0000 0.38900  0.73920  0.39520  Biso   1.000  H
  C190     1.0000 0.42140  0.77400  0.17000  Biso   1.000  C
  C191     1.0000 0.43640  0.74590  0.02000  Biso   1.000  C
  H150     1.0000 0.42900  0.72170  0.05040  Biso   1.000  H
  C192     1.0000 0.46170  0.75330  0.82900  Biso   1.000  C
  H151     1.0000 0.47140  0.73460  0.72290  Biso   1.000  H
  C193     1.0000 0.47330  0.79060  0.79400  Biso   1.000  C
  H152     1.0000 0.49110  0.79670  0.66580  Biso   1.000  H
  C194     1.0000 0.45850  0.81590  0.94300  Biso   1.000  C
  H153     1.0000 0.46530  0.84040  0.91770  Biso   1.000  H
  C195     1.0000 0.43390  0.80750  0.13300  Biso   1.000  C
  H154     1.0000 0.42520  0.82620  0.24390  Biso   1.000  H
  N28      1.0000 0.24010  0.79420  0.49100  Biso   1.000  N
  C196     1.0000 0.23530  0.82180  0.58700  Biso   1.000  C
  Zn7      1.0000 0.25000  0.75000  0.31060  Biso   1.000  Zn
  S15      1.0000 0.27234  0.14100  0.23570  Biso   1.000  S
  N29      1.0000 0.20629  0.23933  0.57950  Biso   1.000  N
  C197     1.0000 0.18670  0.26470  0.47100  Biso   1.000  C
  H155     1.0000 0.19120  0.28890  0.52320  Biso   1.000  H
  C198     1.0000 0.16000  0.25860  0.28700  Biso   1.000  C
  H156     1.0000 0.14710  0.27830  0.21190  Biso   1.000  H
  C199     1.0000 0.15180  0.22360  0.21030  Biso   1.000  C
  C200     1.0000 0.17210  0.19610  0.33100  Biso   1.000  C
  H157     1.0000 0.16790  0.17150  0.28850  Biso   1.000  H
  C201     1.0000 0.19840  0.20580  0.51400  Biso   1.000  C
  H158     1.0000 0.21170  0.18700  0.59670  Biso   1.000  H
  C202     1.0000 0.12520  0.21460  0.00860  Biso   1.000  C
  H159     1.0000 0.12140  0.18960  0.97810  Biso   1.000  H
  C203     1.0000 0.10670  0.23570  0.87000  Biso   1.000  C
  H160     1.0000 0.11100  0.26080  0.89520  Biso   1.000  H
  C204     1.0000 0.07860  0.22600  0.67000  Biso   1.000  C
  C205     1.0000 0.06360  0.25410  0.52000  Biso   1.000  C
  H161     1.0000 0.07100  0.27830  0.55040  Biso   1.000  H
  C206     1.0000 0.03830  0.24670  0.32900  Biso   1.000  C
  H162     1.0000 0.02860  0.26540  0.22290  Biso   1.000  H
  C207     1.0000 0.02670  0.20940  0.29400  Biso   1.000  C
  H163     1.0000 0.00890  0.20330  0.16580  Biso   1.000  H
  C208     1.0000 0.04150  0.18410  0.44300  Biso   1.000  C
  H164     1.0000 0.03470  0.15960  0.41770  Biso   1.000  H
  C209     1.0000 0.06610  0.19250  0.63300  Biso   1.000  C
  H165     1.0000 0.07480  0.17380  0.74390  Biso   1.000  H
  N30      1.0000 0.25990  0.20580  0.99100  Biso   1.000  N
  C210     1.0000 0.26470  0.17820  0.08700  Biso   1.000  C
  S16      1.0000 0.22766  0.35900  0.23570  Biso   1.000  S
  N31      1.0000 0.29371  0.26067  0.57950  Biso   1.000  N
  C211     1.0000 0.31330  0.23530  0.47100  Biso   1.000  C
  H166     1.0000 0.30880  0.21110  0.52320  Biso   1.000  H
  C212     1.0000 0.34000  0.24140  0.28700  Biso   1.000  C
  H167     1.0000 0.35290  0.22170  0.21190  Biso   1.000  H
  C213     1.0000 0.34820  0.27640  0.21030  Biso   1.000  C
  C214     1.0000 0.32790  0.30390  0.33100  Biso   1.000  C
  H168     1.0000 0.33210  0.32850  0.28850  Biso   1.000  H
  C215     1.0000 0.30160  0.29420  0.51400  Biso   1.000  C
  H169     1.0000 0.28830  0.31300  0.59670  Biso   1.000  H
  C216     1.0000 0.37480  0.28540  0.00860  Biso   1.000  C
  H170     1.0000 0.37860  0.31040  0.97810  Biso   1.000  H
  C217     1.0000 0.39330  0.26430  0.87000  Biso   1.000  C
  H171     1.0000 0.38900  0.23920  0.89520  Biso   1.000  H
  C218     1.0000 0.42140  0.27400  0.67000  Biso   1.000  C
  C219     1.0000 0.43640  0.24590  0.52000  Biso   1.000  C
  H172     1.0000 0.42900  0.22170  0.55040  Biso   1.000  H
  C220     1.0000 0.46170  0.25330  0.32900  Biso   1.000  C
  H173     1.0000 0.47140  0.23460  0.22290  Biso   1.000  H
  C221     1.0000 0.47330  0.29060  0.29400  Biso   1.000  C
  H174     1.0000 0.49110  0.29670  0.16580  Biso   1.000  H
  C222     1.0000 0.45850  0.31590  0.44300  Biso   1.000  C
  H175     1.0000 0.46530  0.34040  0.41770  Biso   1.000  H
  C223     1.0000 0.43390  0.30750  0.63300  Biso   1.000  C
  H176     1.0000 0.42520  0.32620  0.74390  Biso   1.000  H
  N32      1.0000 0.24010  0.29420  0.99100  Biso   1.000  N
  C224     1.0000 0.23530  0.32180  0.08700  Biso   1.000  C
  Zn8      1.0000 0.25000  0.25000  0.81060  Biso   1.000  Zn
