data_image0
_cell_length_a       8.234
_cell_length_b       11.872
_cell_length_c       14.212
_cell_angle_alpha    104.37
_cell_angle_beta     94.85
_cell_angle_gamma    96.85

_symmetry_space_group_name_H-M    "P 1"
_symmetry_int_tables_number       1

loop_
  _symmetry_equiv_pos_as_xyz
  'x, y, z'

loop_
  _atom_site_label
  _atom_site_occupancy
  _atom_site_fract_x
  _atom_site_fract_y
  _atom_site_fract_z
  _atom_site_thermal_displace_type
  _atom_site_B_iso_or_equiv
  _atom_site_type_symbol
  N1       1.0000 0.69940  0.32906  0.95871  Biso   1.000  N
  N2       1.0000 0.57500  0.91396  0.23767  Biso   1.000  N
  N3       1.0000 0.02618  0.58412  0.64199  Biso   1.000  N
  N4       1.0000 0.09972  0.36511  0.53325  Biso   1.000  N
  C1       1.0000 0.98930  0.69490  0.68306  Biso   1.000  C
  C2       1.0000 0.03170  0.72614  0.78785  Biso   1.000  C
  H1       1.0000 0.01670  0.79710  0.83270  Biso   1.000  H
  C3       1.0000 0.09700  0.63481  0.81011  Biso   1.000  C
  H2       1.0000 0.13860  0.63040  0.87330  Biso   1.000  H
  C4       1.0000 0.09090  0.54588  0.71940  Biso   1.000  C
  C5       1.0000 0.14380  0.43677  0.71330  Biso   1.000  C
  C6       1.0000 0.14650  0.35264  0.62531  Biso   1.000  C
  C7       1.0000 0.19550  0.23842  0.61857  Biso   1.000  C
  H3       1.0000 0.23240  0.20860  0.67150  Biso   1.000  H
  C8       1.0000 0.17850  0.18180  0.52180  Biso   1.000  C
  H4       1.0000 0.20180  0.10480  0.49420  Biso   1.000  H
  C9       1.0000 0.11840  0.26042  0.46891  Biso   1.000  C
  C10      1.0000 0.07800  0.23160  0.36749  Biso   1.000  C
  C11      1.0000 0.39890  0.36336  0.91937  Biso   1.000  C
  C12      1.0000 0.35370  0.38807  0.83029  Biso   1.000  C
  H5       1.0000 0.43230  0.39120  0.78540  Biso   1.000  H
  C13      1.0000 0.19390  0.40814  0.80724  Biso   1.000  C
  C14      1.0000 0.07920  0.40126  0.87430  Biso   1.000  C
  H6       1.0000 0.96930  0.41380  0.85910  Biso   1.000  H
  C15      1.0000 0.12510  0.37619  0.96280  Biso   1.000  C
  H7       1.0000 0.04610  0.37170  0.00720  Biso   1.000  H
  C16      1.0000 0.28500  0.35780  0.98655  Biso   1.000  C
  H8       1.0000 0.31660  0.34180  0.04720  Biso   1.000  H
  C17      1.0000 0.56590  0.34414  0.94157  Biso   1.000  C
  C18      1.0000 0.28090  0.97121  0.24570  Biso   1.000  C
  C19      1.0000 0.26070  0.08212  0.30248  Biso   1.000  C
  H9       1.0000 0.35410  0.13630  0.33630  Biso   1.000  H
  C20      1.0000 0.10310  0.11283  0.30923  Biso   1.000  C
  C21      1.0000 0.96720  0.03053  0.25935  Biso   1.000  C
  H10      1.0000 0.85920  0.05020  0.26440  Biso   1.000  H
  C22      1.0000 0.98820  0.92045  0.20254  Biso   1.000  C
  H11      1.0000 0.89470  0.86590  0.16930  Biso   1.000  H
  C23      1.0000 0.14520  0.89007  0.19439  Biso   1.000  C
  H12      1.0000 0.16030  0.81570  0.15480  Biso   1.000  H
  C24      1.0000 0.44450  0.93972  0.24046  Biso   1.000  C
  N5       1.0000 0.30060  0.67094  0.04129  Biso   1.000  N
  N6       1.0000 0.42500  0.08604  0.76233  Biso   1.000  N
  N7       1.0000 0.97382  0.41588  0.35801  Biso   1.000  N
  N8       1.0000 0.90028  0.63489  0.46675  Biso   1.000  N
  C25      1.0000 0.01070  0.30510  0.31694  Biso   1.000  C
  C26      1.0000 0.96830  0.27386  0.21215  Biso   1.000  C
  H13      1.0000 0.98330  0.20290  0.16730  Biso   1.000  H
  C27      1.0000 0.90300  0.36519  0.18989  Biso   1.000  C
  H14      1.0000 0.86140  0.36960  0.12670  Biso   1.000  H
  C28      1.0000 0.90910  0.45412  0.28060  Biso   1.000  C
  C29      1.0000 0.85620  0.56323  0.28670  Biso   1.000  C
  C30      1.0000 0.85350  0.64736  0.37469  Biso   1.000  C
  C31      1.0000 0.80450  0.76158  0.38143  Biso   1.000  C
  H15      1.0000 0.76760  0.79140  0.32850  Biso   1.000  H
  C32      1.0000 0.82150  0.81820  0.47820  Biso   1.000  C
  H16      1.0000 0.79820  0.89520  0.50580  Biso   1.000  H
  C33      1.0000 0.88160  0.73958  0.53109  Biso   1.000  C
  C34      1.0000 0.92200  0.76840  0.63251  Biso   1.000  C
  C35      1.0000 0.60110  0.63664  0.08063  Biso   1.000  C
  C36      1.0000 0.64630  0.61193  0.16971  Biso   1.000  C
  H17      1.0000 0.56770  0.60880  0.21460  Biso   1.000  H
  C37      1.0000 0.80610  0.59186  0.19276  Biso   1.000  C
  C38      1.0000 0.92080  0.59874  0.12570  Biso   1.000  C
  H18      1.0000 0.03070  0.58620  0.14090  Biso   1.000  H
  C39      1.0000 0.87490  0.62381  0.03720  Biso   1.000  C
  H19      1.0000 0.95390  0.62830  0.99280  Biso   1.000  H
  C40      1.0000 0.71500  0.64220  0.01345  Biso   1.000  C
  H20      1.0000 0.68340  0.65820  0.95280  Biso   1.000  H
  C41      1.0000 0.43410  0.65586  0.05843  Biso   1.000  C
  C42      1.0000 0.71910  0.02879  0.75430  Biso   1.000  C
  C43      1.0000 0.73930  0.91788  0.69752  Biso   1.000  C
  H21      1.0000 0.64590  0.86370  0.66370  Biso   1.000  H
  C44      1.0000 0.89690  0.88717  0.69077  Biso   1.000  C
  C45      1.0000 0.03280  0.96947  0.74065  Biso   1.000  C
  H22      1.0000 0.14080  0.94980  0.73560  Biso   1.000  H
  C46      1.0000 0.01180  0.07955  0.79746  Biso   1.000  C
  H23      1.0000 0.10530  0.13410  0.83070  Biso   1.000  H
  C47      1.0000 0.85480  0.10993  0.80561  Biso   1.000  C
  H24      1.0000 0.83970  0.18430  0.84520  Biso   1.000  H
  C48      1.0000 0.55550  0.06028  0.75954  Biso   1.000  C
  Cu1      1.0000 0.00000  0.50000  0.50000  Biso   1.000  Cu
  O1       1.0000 0.22970  0.12460  0.07300  Biso   1.000  O
  O2       1.0000 0.11290  0.95950  0.97890  Biso   1.000  O
  N9       1.0000 0.23020  0.03000  0.01590  Biso   1.000  N
  C49      1.0000 0.39530  0.99850  0.99450  Biso   1.000  C
  C50      1.0000 0.40710  0.89200  0.92910  Biso   1.000  C
  H25      1.0000 0.31000  0.84060  0.89710  Biso   1.000  H
  C51      1.0000 0.56090  0.86080  0.91030  Biso   1.000  C
  H26      1.0000 0.56890  0.78810  0.86560  Biso   1.000  H
  C52      1.0000 0.70290  0.93610  0.95700  Biso   1.000  C
  H27      1.0000 0.80800  0.91470  0.94420  Biso   1.000  H
  C53      1.0000 0.69120  0.04250  0.02250  Biso   1.000  C
  H28      1.0000 0.78830  0.09390  0.05450  Biso   1.000  H
  C54      1.0000 0.53740  0.07370  0.04130  Biso   1.000  C
  H29      1.0000 0.52940  0.14640  0.08600  Biso   1.000  H
  O3       1.0000 0.83370  0.93760  0.97280  Biso   1.000  O
  O4       1.0000 0.62990  0.81920  0.87530  Biso   1.000  O
  N10      1.0000 0.68600  0.90440  0.94110  Biso   1.000  N
  C55      1.0000 0.56190  0.97520  0.98510  Biso   1.000  C
  C56      1.0000 0.61440  0.08330  0.05220  Biso   1.000  C
  H30      1.0000 0.72880  0.11110  0.06920  Biso   1.000  H
  C57      1.0000 0.49940  0.15060  0.09430  Biso   1.000  C
  H31      1.0000 0.53530  0.22450  0.14010  Biso   1.000  H
  C58      1.0000 0.33210  0.10990  0.06940  Biso   1.000  C
  H32      1.0000 0.25350  0.15600  0.09820  Biso   1.000  H
  C59      1.0000 0.27960  0.00190  0.00230  Biso   1.000  C
  H33      1.0000 0.16520  0.97410  0.98530  Biso   1.000  H
  C60      1.0000 0.39450  0.93450  0.96020  Biso   1.000  C
  H34      1.0000 0.35870  0.86060  0.91430  Biso   1.000  H
  O5       1.0000 0.77030  0.87540  0.92700  Biso   1.000  O
  O6       1.0000 0.88710  0.04050  0.02110  Biso   1.000  O
  N11      1.0000 0.76980  0.97000  0.98410  Biso   1.000  N
  C61      1.0000 0.60470  0.00150  0.00550  Biso   1.000  C
  C62      1.0000 0.59290  0.10800  0.07090  Biso   1.000  C
  H35      1.0000 0.69000  0.15940  0.10290  Biso   1.000  H
  C63      1.0000 0.43910  0.13920  0.08970  Biso   1.000  C
  H36      1.0000 0.43110  0.21190  0.13440  Biso   1.000  H
  C64      1.0000 0.29710  0.06390  0.04300  Biso   1.000  C
  H37      1.0000 0.19200  0.08530  0.05580  Biso   1.000  H
  C65      1.0000 0.30880  0.95750  0.97750  Biso   1.000  C
  H38      1.0000 0.21170  0.90610  0.94550  Biso   1.000  H
  C66      1.0000 0.46260  0.92630  0.95870  Biso   1.000  C
  H39      1.0000 0.47060  0.85360  0.91400  Biso   1.000  H
  O7       1.0000 0.16630  0.06240  0.02720  Biso   1.000  O
  O8       1.0000 0.37010  0.18080  0.12470  Biso   1.000  O
  N12      1.0000 0.31400  0.09560  0.05890  Biso   1.000  N
  C67      1.0000 0.43810  0.02480  0.01490  Biso   1.000  C
  C68      1.0000 0.38560  0.91670  0.94780  Biso   1.000  C
  H40      1.0000 0.27120  0.88890  0.93080  Biso   1.000  H
  C69      1.0000 0.50060  0.84940  0.90570  Biso   1.000  C
  H41      1.0000 0.46470  0.77550  0.85990  Biso   1.000  H
  C70      1.0000 0.66790  0.89010  0.93060  Biso   1.000  C
  H42      1.0000 0.74650  0.84400  0.90180  Biso   1.000  H
  C71      1.0000 0.72040  0.99810  0.99770  Biso   1.000  C
  H43      1.0000 0.83480  0.02590  0.01470  Biso   1.000  H
  C72      1.0000 0.60550  0.06550  0.03980  Biso   1.000  C
  H44      1.0000 0.64130  0.13940  0.08570  Biso   1.000  H
