data_image0
_cell_length_a       16.4083
_cell_length_b       17.639
_cell_length_c       21.6604
_cell_angle_alpha    90
_cell_angle_beta     94.477
_cell_angle_gamma    90

_symmetry_space_group_name_H-M    "P 1"
_symmetry_int_tables_number       1

loop_
  _symmetry_equiv_pos_as_xyz
  'x, y, z'

loop_
  _atom_site_label
  _atom_site_occupancy
  _atom_site_fract_x
  _atom_site_fract_y
  _atom_site_fract_z
  _atom_site_thermal_displace_type
  _atom_site_B_iso_or_equiv
  _atom_site_type_symbol
  C1       1.0000 0.96850  0.62380  0.64414  Biso   1.000  C
  C2       1.0000 0.95840  0.70270  0.64602  Biso   1.000  C
  H1       1.0000 0.98290  0.73330  0.61780  Biso   1.000  H
  C3       1.0000 0.91270  0.73480  0.68920  Biso   1.000  C
  H2       1.0000 0.90660  0.78720  0.69020  Biso   1.000  H
  C4       1.0000 0.87480  0.68970  0.73216  Biso   1.000  C
  H3       1.0000 0.84390  0.71260  0.76120  Biso   1.000  H
  C5       1.0000 0.88290  0.61230  0.73161  Biso   1.000  C
  H4       1.0000 0.85740  0.58290  0.76010  Biso   1.000  H
  C6       1.0000 0.93030  0.57680  0.68752  Biso   1.000  C
  C7       1.0000 0.94170  0.49760  0.68532  Biso   1.000  C
  H5       1.0000 0.91610  0.46600  0.71230  Biso   1.000  H
  C8       1.0000 0.99060  0.46770  0.64322  Biso   1.000  C
  H6       1.0000 0.00000  0.41580  0.64170  Biso   1.000  H
  C9       1.0000 0.02670  0.51770  0.60201  Biso   1.000  C
  C10      1.0000 0.07940  0.49220  0.55591  Biso   1.000  C
  C11      1.0000 0.15190  0.42290  0.50228  Biso   1.000  C
  C12      1.0000 0.25040  0.37090  0.41701  Biso   1.000  C
  H7       1.0000 0.21470  0.39330  0.38420  Biso   1.000  H
  H8       1.0000 0.29050  0.40840  0.43200  Biso   1.000  H
  C13      1.0000 0.29240  0.30090  0.39380  Biso   1.000  C
  H9       1.0000 0.32490  0.27790  0.42820  Biso   1.000  H
  H10      1.0000 0.25100  0.26450  0.37920  Biso   1.000  H
  C14      1.0000 0.34690  0.31680  0.34240  Biso   1.000  C
  H11      1.0000 0.31430  0.34040  0.30840  Biso   1.000  H
  H12      1.0000 0.36670  0.26890  0.32750  Biso   1.000  H
  C15      1.0000 0.48770  0.31780  0.41623  Biso   1.000  C
  C16      1.0000 0.58190  0.29070  0.48572  Biso   1.000  C
  C17      1.0000 0.65370  0.29450  0.52948  Biso   1.000  C
  C18      1.0000 0.70300  0.35950  0.53870  Biso   1.000  C
  H13      1.0000 0.69070  0.40410  0.51700  Biso   1.000  H
  C19      1.0000 0.76960  0.35490  0.58060  Biso   1.000  C
  H14      1.0000 0.80320  0.39690  0.58800  Biso   1.000  H
  C20      1.0000 0.78730  0.28670  0.61261  Biso   1.000  C
  C21      1.0000 0.85580  0.27750  0.65626  Biso   1.000  C
  H15      1.0000 0.89020  0.31850  0.66580  Biso   1.000  H
  C22      1.0000 0.87170  0.20930  0.68438  Biso   1.000  C
  H16      1.0000 0.91730  0.20390  0.71240  Biso   1.000  H
  C23      1.0000 0.81920  0.14640  0.67110  Biso   1.000  C
  H17      1.0000 0.83080  0.10000  0.69020  Biso   1.000  H
  C24      1.0000 0.75180  0.15390  0.63057  Biso   1.000  C
  H18      1.0000 0.71700  0.11280  0.62280  Biso   1.000  H
  C25      1.0000 0.73440  0.22370  0.60031  Biso   1.000  C
  Cu1      1.0000 0.08010  0.64655  0.53552  Biso   1.000  Cu
  N1       1.0000 0.01596  0.59258  0.60146  Biso   1.000  N
  N2       1.0000 0.11272  0.53696  0.51713  Biso   1.000  N
  N3       1.0000 0.16100  0.49120  0.48135  Biso   1.000  N
  N4       1.0000 0.53763  0.23046  0.47625  Biso   1.000  N
  N5       1.0000 0.47450  0.24780  0.43043  Biso   1.000  N
  N6       1.0000 0.66716  0.22884  0.55879  Biso   1.000  N
  O1       1.0000 0.10084  0.41860  0.54919  Biso   1.000  O
  O2       1.0000 0.55465  0.34928  0.44887  Biso   1.000  O
  S1       1.0000 0.19173  0.33790  0.47979  Biso   1.000  S
  S2       1.0000 0.43429  0.37731  0.36357  Biso   1.000  S
  C26      1.0000 0.46850  0.12380  0.64414  Biso   1.000  C
  C27      1.0000 0.45840  0.20270  0.64602  Biso   1.000  C
  H19      1.0000 0.48290  0.23330  0.61780  Biso   1.000  H
  C28      1.0000 0.41270  0.23480  0.68920  Biso   1.000  C
  H20      1.0000 0.40660  0.28720  0.69020  Biso   1.000  H
  C29      1.0000 0.37480  0.18970  0.73216  Biso   1.000  C
  H21      1.0000 0.34390  0.21260  0.76120  Biso   1.000  H
  C30      1.0000 0.38290  0.11230  0.73161  Biso   1.000  C
  H22      1.0000 0.35740  0.08290  0.76010  Biso   1.000  H
  C31      1.0000 0.43030  0.07680  0.68752  Biso   1.000  C
  C32      1.0000 0.44170  0.99760  0.68532  Biso   1.000  C
  H23      1.0000 0.41610  0.96600  0.71230  Biso   1.000  H
  C33      1.0000 0.49060  0.96770  0.64322  Biso   1.000  C
  H24      1.0000 0.50000  0.91580  0.64170  Biso   1.000  H
  C34      1.0000 0.52670  0.01770  0.60201  Biso   1.000  C
  C35      1.0000 0.57940  0.99220  0.55591  Biso   1.000  C
  C36      1.0000 0.65190  0.92290  0.50228  Biso   1.000  C
  C37      1.0000 0.75040  0.87090  0.41701  Biso   1.000  C
  H25      1.0000 0.71470  0.89330  0.38420  Biso   1.000  H
  H26      1.0000 0.79050  0.90840  0.43200  Biso   1.000  H
  C38      1.0000 0.79240  0.80090  0.39380  Biso   1.000  C
  H27      1.0000 0.82490  0.77790  0.42820  Biso   1.000  H
  H28      1.0000 0.75100  0.76450  0.37920  Biso   1.000  H
  C39      1.0000 0.84690  0.81680  0.34240  Biso   1.000  C
  H29      1.0000 0.81430  0.84040  0.30840  Biso   1.000  H
  H30      1.0000 0.86670  0.76890  0.32750  Biso   1.000  H
  C40      1.0000 0.98770  0.81780  0.41623  Biso   1.000  C
  C41      1.0000 0.08190  0.79070  0.48572  Biso   1.000  C
  C42      1.0000 0.15370  0.79450  0.52948  Biso   1.000  C
  C43      1.0000 0.20300  0.85950  0.53870  Biso   1.000  C
  H31      1.0000 0.19070  0.90410  0.51700  Biso   1.000  H
  C44      1.0000 0.26960  0.85490  0.58060  Biso   1.000  C
  H32      1.0000 0.30320  0.89690  0.58800  Biso   1.000  H
  C45      1.0000 0.28730  0.78670  0.61261  Biso   1.000  C
  C46      1.0000 0.35580  0.77750  0.65626  Biso   1.000  C
  H33      1.0000 0.39020  0.81850  0.66580  Biso   1.000  H
  C47      1.0000 0.37170  0.70930  0.68438  Biso   1.000  C
  H34      1.0000 0.41730  0.70390  0.71240  Biso   1.000  H
  C48      1.0000 0.31920  0.64640  0.67110  Biso   1.000  C
  H35      1.0000 0.33080  0.60000  0.69020  Biso   1.000  H
  C49      1.0000 0.25180  0.65390  0.63057  Biso   1.000  C
  H36      1.0000 0.21700  0.61280  0.62280  Biso   1.000  H
  C50      1.0000 0.23440  0.72370  0.60031  Biso   1.000  C
  Cu2      1.0000 0.58010  0.14655  0.53552  Biso   1.000  Cu
  N7       1.0000 0.51596  0.09258  0.60146  Biso   1.000  N
  N8       1.0000 0.61272  0.03696  0.51713  Biso   1.000  N
  N9       1.0000 0.66100  0.99120  0.48135  Biso   1.000  N
  N10      1.0000 0.03763  0.73046  0.47625  Biso   1.000  N
  N11      1.0000 0.97450  0.74780  0.43043  Biso   1.000  N
  N12      1.0000 0.16716  0.72884  0.55879  Biso   1.000  N
  O3       1.0000 0.60084  0.91860  0.54919  Biso   1.000  O
  O4       1.0000 0.05465  0.84928  0.44887  Biso   1.000  O
  S3       1.0000 0.69173  0.83790  0.47979  Biso   1.000  S
  S4       1.0000 0.93429  0.87731  0.36357  Biso   1.000  S
  C51      1.0000 0.03150  0.62380  0.85586  Biso   1.000  C
  C52      1.0000 0.04160  0.70270  0.85398  Biso   1.000  C
  H37      1.0000 0.01710  0.73330  0.88220  Biso   1.000  H
  C53      1.0000 0.08730  0.73480  0.81080  Biso   1.000  C
  H38      1.0000 0.09340  0.78720  0.80980  Biso   1.000  H
  C54      1.0000 0.12520  0.68970  0.76784  Biso   1.000  C
  H39      1.0000 0.15610  0.71260  0.73880  Biso   1.000  H
  C55      1.0000 0.11710  0.61230  0.76839  Biso   1.000  C
  H40      1.0000 0.14260  0.58290  0.73990  Biso   1.000  H
  C56      1.0000 0.06970  0.57680  0.81248  Biso   1.000  C
  C57      1.0000 0.05830  0.49760  0.81468  Biso   1.000  C
  H41      1.0000 0.08390  0.46600  0.78770  Biso   1.000  H
  C58      1.0000 0.00940  0.46770  0.85678  Biso   1.000  C
  H42      1.0000 0.00000  0.41580  0.85830  Biso   1.000  H
  C59      1.0000 0.97330  0.51770  0.89799  Biso   1.000  C
  C60      1.0000 0.92060  0.49220  0.94409  Biso   1.000  C
  C61      1.0000 0.84810  0.42290  0.99772  Biso   1.000  C
  C62      1.0000 0.74960  0.37090  0.08299  Biso   1.000  C
  H43      1.0000 0.78530  0.39330  0.11580  Biso   1.000  H
  H44      1.0000 0.70950  0.40840  0.06800  Biso   1.000  H
  C63      1.0000 0.70760  0.30090  0.10620  Biso   1.000  C
  H45      1.0000 0.67510  0.27790  0.07180  Biso   1.000  H
  H46      1.0000 0.74900  0.26450  0.12080  Biso   1.000  H
  C64      1.0000 0.65310  0.31680  0.15760  Biso   1.000  C
  H47      1.0000 0.68570  0.34040  0.19160  Biso   1.000  H
  H48      1.0000 0.63330  0.26890  0.17250  Biso   1.000  H
  C65      1.0000 0.51230  0.31780  0.08377  Biso   1.000  C
  C66      1.0000 0.41810  0.29070  0.01428  Biso   1.000  C
  C67      1.0000 0.34630  0.29450  0.97052  Biso   1.000  C
  C68      1.0000 0.29700  0.35950  0.96130  Biso   1.000  C
  H49      1.0000 0.30930  0.40410  0.98300  Biso   1.000  H
  C69      1.0000 0.23040  0.35490  0.91940  Biso   1.000  C
  H50      1.0000 0.19680  0.39690  0.91200  Biso   1.000  H
  C70      1.0000 0.21270  0.28670  0.88739  Biso   1.000  C
  C71      1.0000 0.14420  0.27750  0.84374  Biso   1.000  C
  H51      1.0000 0.10980  0.31850  0.83420  Biso   1.000  H
  C72      1.0000 0.12830  0.20930  0.81562  Biso   1.000  C
  H52      1.0000 0.08270  0.20390  0.78760  Biso   1.000  H
  C73      1.0000 0.18080  0.14640  0.82890  Biso   1.000  C
  H53      1.0000 0.16920  0.10000  0.80980  Biso   1.000  H
  C74      1.0000 0.24820  0.15390  0.86943  Biso   1.000  C
  H54      1.0000 0.28300  0.11280  0.87720  Biso   1.000  H
  C75      1.0000 0.26560  0.22370  0.89969  Biso   1.000  C
  Cu3      1.0000 0.91990  0.64655  0.96448  Biso   1.000  Cu
  N13      1.0000 0.98404  0.59258  0.89854  Biso   1.000  N
  N14      1.0000 0.88728  0.53696  0.98287  Biso   1.000  N
  N15      1.0000 0.83900  0.49120  0.01865  Biso   1.000  N
  N16      1.0000 0.46237  0.23046  0.02375  Biso   1.000  N
  N17      1.0000 0.52550  0.24780  0.06957  Biso   1.000  N
  N18      1.0000 0.33284  0.22884  0.94121  Biso   1.000  N
  O5       1.0000 0.89916  0.41860  0.95081  Biso   1.000  O
  O6       1.0000 0.44535  0.34928  0.05113  Biso   1.000  O
  S5       1.0000 0.80827  0.33790  0.02021  Biso   1.000  S
  S6       1.0000 0.56571  0.37731  0.13643  Biso   1.000  S
  C76      1.0000 0.53150  0.12380  0.85586  Biso   1.000  C
  C77      1.0000 0.54160  0.20270  0.85398  Biso   1.000  C
  H55      1.0000 0.51710  0.23330  0.88220  Biso   1.000  H
  C78      1.0000 0.58730  0.23480  0.81080  Biso   1.000  C
  H56      1.0000 0.59340  0.28720  0.80980  Biso   1.000  H
  C79      1.0000 0.62520  0.18970  0.76784  Biso   1.000  C
  H57      1.0000 0.65610  0.21260  0.73880  Biso   1.000  H
  C80      1.0000 0.61710  0.11230  0.76839  Biso   1.000  C
  H58      1.0000 0.64260  0.08290  0.73990  Biso   1.000  H
  C81      1.0000 0.56970  0.07680  0.81248  Biso   1.000  C
  C82      1.0000 0.55830  0.99760  0.81468  Biso   1.000  C
  H59      1.0000 0.58390  0.96600  0.78770  Biso   1.000  H
  C83      1.0000 0.50940  0.96770  0.85678  Biso   1.000  C
  H60      1.0000 0.50000  0.91580  0.85830  Biso   1.000  H
  C84      1.0000 0.47330  0.01770  0.89799  Biso   1.000  C
  C85      1.0000 0.42060  0.99220  0.94409  Biso   1.000  C
  C86      1.0000 0.34810  0.92290  0.99772  Biso   1.000  C
  C87      1.0000 0.24960  0.87090  0.08299  Biso   1.000  C
  H61      1.0000 0.28530  0.89330  0.11580  Biso   1.000  H
  H62      1.0000 0.20950  0.90840  0.06800  Biso   1.000  H
  C88      1.0000 0.20760  0.80090  0.10620  Biso   1.000  C
  H63      1.0000 0.17510  0.77790  0.07180  Biso   1.000  H
  H64      1.0000 0.24900  0.76450  0.12080  Biso   1.000  H
  C89      1.0000 0.15310  0.81680  0.15760  Biso   1.000  C
  H65      1.0000 0.18570  0.84040  0.19160  Biso   1.000  H
  H66      1.0000 0.13330  0.76890  0.17250  Biso   1.000  H
  C90      1.0000 0.01230  0.81780  0.08377  Biso   1.000  C
  C91      1.0000 0.91810  0.79070  0.01428  Biso   1.000  C
  C92      1.0000 0.84630  0.79450  0.97052  Biso   1.000  C
  C93      1.0000 0.79700  0.85950  0.96130  Biso   1.000  C
  H67      1.0000 0.80930  0.90410  0.98300  Biso   1.000  H
  C94      1.0000 0.73040  0.85490  0.91940  Biso   1.000  C
  H68      1.0000 0.69680  0.89690  0.91200  Biso   1.000  H
  C95      1.0000 0.71270  0.78670  0.88739  Biso   1.000  C
  C96      1.0000 0.64420  0.77750  0.84374  Biso   1.000  C
  H69      1.0000 0.60980  0.81850  0.83420  Biso   1.000  H
  C97      1.0000 0.62830  0.70930  0.81562  Biso   1.000  C
  H70      1.0000 0.58270  0.70390  0.78760  Biso   1.000  H
  C98      1.0000 0.68080  0.64640  0.82890  Biso   1.000  C
  H71      1.0000 0.66920  0.60000  0.80980  Biso   1.000  H
  C99      1.0000 0.74820  0.65390  0.86943  Biso   1.000  C
  H72      1.0000 0.78300  0.61280  0.87720  Biso   1.000  H
  C100     1.0000 0.76560  0.72370  0.89969  Biso   1.000  C
  Cu4      1.0000 0.41990  0.14655  0.96448  Biso   1.000  Cu
  N19      1.0000 0.48404  0.09258  0.89854  Biso   1.000  N
  N20      1.0000 0.38728  0.03696  0.98287  Biso   1.000  N
  N21      1.0000 0.33900  0.99120  0.01865  Biso   1.000  N
  N22      1.0000 0.96237  0.73046  0.02375  Biso   1.000  N
  N23      1.0000 0.02550  0.74780  0.06957  Biso   1.000  N
  N24      1.0000 0.83284  0.72884  0.94121  Biso   1.000  N
  O7       1.0000 0.39916  0.91860  0.95081  Biso   1.000  O
  O8       1.0000 0.94535  0.84928  0.05113  Biso   1.000  O
  S7       1.0000 0.30827  0.83790  0.02021  Biso   1.000  S
  S8       1.0000 0.06571  0.87731  0.13643  Biso   1.000  S
  C101     1.0000 0.03150  0.37620  0.35586  Biso   1.000  C
  C102     1.0000 0.04160  0.29730  0.35398  Biso   1.000  C
  H73      1.0000 0.01710  0.26670  0.38220  Biso   1.000  H
  C103     1.0000 0.08730  0.26520  0.31080  Biso   1.000  C
  H74      1.0000 0.09340  0.21280  0.30980  Biso   1.000  H
  C104     1.0000 0.12520  0.31030  0.26784  Biso   1.000  C
  H75      1.0000 0.15610  0.28740  0.23880  Biso   1.000  H
  C105     1.0000 0.11710  0.38770  0.26839  Biso   1.000  C
  H76      1.0000 0.14260  0.41710  0.23990  Biso   1.000  H
  C106     1.0000 0.06970  0.42320  0.31248  Biso   1.000  C
  C107     1.0000 0.05830  0.50240  0.31468  Biso   1.000  C
  H77      1.0000 0.08390  0.53400  0.28770  Biso   1.000  H
  C108     1.0000 0.00940  0.53230  0.35678  Biso   1.000  C
  H78      1.0000 0.00000  0.58420  0.35830  Biso   1.000  H
  C109     1.0000 0.97330  0.48230  0.39799  Biso   1.000  C
  C110     1.0000 0.92060  0.50780  0.44409  Biso   1.000  C
  C111     1.0000 0.84810  0.57710  0.49772  Biso   1.000  C
  C112     1.0000 0.74960  0.62910  0.58299  Biso   1.000  C
  H79      1.0000 0.78530  0.60670  0.61580  Biso   1.000  H
  H80      1.0000 0.70950  0.59160  0.56800  Biso   1.000  H
  C113     1.0000 0.70760  0.69910  0.60620  Biso   1.000  C
  H81      1.0000 0.67510  0.72210  0.57180  Biso   1.000  H
  H82      1.0000 0.74900  0.73550  0.62080  Biso   1.000  H
  C114     1.0000 0.65310  0.68320  0.65760  Biso   1.000  C
  H83      1.0000 0.68570  0.65960  0.69160  Biso   1.000  H
  H84      1.0000 0.63330  0.73110  0.67250  Biso   1.000  H
  C115     1.0000 0.51230  0.68220  0.58377  Biso   1.000  C
  C116     1.0000 0.41810  0.70930  0.51428  Biso   1.000  C
  C117     1.0000 0.34630  0.70550  0.47052  Biso   1.000  C
  C118     1.0000 0.29700  0.64050  0.46130  Biso   1.000  C
  H85      1.0000 0.30930  0.59590  0.48300  Biso   1.000  H
  C119     1.0000 0.23040  0.64510  0.41940  Biso   1.000  C
  H86      1.0000 0.19680  0.60310  0.41200  Biso   1.000  H
  C120     1.0000 0.21270  0.71330  0.38739  Biso   1.000  C
  C121     1.0000 0.14420  0.72250  0.34374  Biso   1.000  C
  H87      1.0000 0.10980  0.68150  0.33420  Biso   1.000  H
  C122     1.0000 0.12830  0.79070  0.31562  Biso   1.000  C
  H88      1.0000 0.08270  0.79610  0.28760  Biso   1.000  H
  C123     1.0000 0.18080  0.85360  0.32890  Biso   1.000  C
  H89      1.0000 0.16920  0.90000  0.30980  Biso   1.000  H
  C124     1.0000 0.24820  0.84610  0.36943  Biso   1.000  C
  H90      1.0000 0.28300  0.88720  0.37720  Biso   1.000  H
  C125     1.0000 0.26560  0.77630  0.39969  Biso   1.000  C
  Cu5      1.0000 0.91990  0.35345  0.46448  Biso   1.000  Cu
  N25      1.0000 0.98404  0.40742  0.39854  Biso   1.000  N
  N26      1.0000 0.88728  0.46304  0.48287  Biso   1.000  N
  N27      1.0000 0.83900  0.50880  0.51865  Biso   1.000  N
  N28      1.0000 0.46237  0.76954  0.52375  Biso   1.000  N
  N29      1.0000 0.52550  0.75220  0.56957  Biso   1.000  N
  N30      1.0000 0.33284  0.77116  0.44121  Biso   1.000  N
  O9       1.0000 0.89916  0.58140  0.45081  Biso   1.000  O
  O10      1.0000 0.44535  0.65072  0.55113  Biso   1.000  O
  S9       1.0000 0.80827  0.66210  0.52021  Biso   1.000  S
  S10      1.0000 0.56571  0.62269  0.63643  Biso   1.000  S
  C126     1.0000 0.53150  0.87620  0.35586  Biso   1.000  C
  C127     1.0000 0.54160  0.79730  0.35398  Biso   1.000  C
  H91      1.0000 0.51710  0.76670  0.38220  Biso   1.000  H
  C128     1.0000 0.58730  0.76520  0.31080  Biso   1.000  C
  H92      1.0000 0.59340  0.71280  0.30980  Biso   1.000  H
  C129     1.0000 0.62520  0.81030  0.26784  Biso   1.000  C
  H93      1.0000 0.65610  0.78740  0.23880  Biso   1.000  H
  C130     1.0000 0.61710  0.88770  0.26839  Biso   1.000  C
  H94      1.0000 0.64260  0.91710  0.23990  Biso   1.000  H
  C131     1.0000 0.56970  0.92320  0.31248  Biso   1.000  C
  C132     1.0000 0.55830  0.00240  0.31468  Biso   1.000  C
  H95      1.0000 0.58390  0.03400  0.28770  Biso   1.000  H
  C133     1.0000 0.50940  0.03230  0.35678  Biso   1.000  C
  H96      1.0000 0.50000  0.08420  0.35830  Biso   1.000  H
  C134     1.0000 0.47330  0.98230  0.39799  Biso   1.000  C
  C135     1.0000 0.42060  0.00780  0.44409  Biso   1.000  C
  C136     1.0000 0.34810  0.07710  0.49772  Biso   1.000  C
  C137     1.0000 0.24960  0.12910  0.58299  Biso   1.000  C
  H97      1.0000 0.28530  0.10670  0.61580  Biso   1.000  H
  H98      1.0000 0.20950  0.09160  0.56800  Biso   1.000  H
  C138     1.0000 0.20760  0.19910  0.60620  Biso   1.000  C
  H99      1.0000 0.17510  0.22210  0.57180  Biso   1.000  H
  H100     1.0000 0.24900  0.23550  0.62080  Biso   1.000  H
  C139     1.0000 0.15310  0.18320  0.65760  Biso   1.000  C
  H101     1.0000 0.18570  0.15960  0.69160  Biso   1.000  H
  H102     1.0000 0.13330  0.23110  0.67250  Biso   1.000  H
  C140     1.0000 0.01230  0.18220  0.58377  Biso   1.000  C
  C141     1.0000 0.91810  0.20930  0.51428  Biso   1.000  C
  C142     1.0000 0.84630  0.20550  0.47052  Biso   1.000  C
  C143     1.0000 0.79700  0.14050  0.46130  Biso   1.000  C
  H103     1.0000 0.80930  0.09590  0.48300  Biso   1.000  H
  C144     1.0000 0.73040  0.14510  0.41940  Biso   1.000  C
  H104     1.0000 0.69680  0.10310  0.41200  Biso   1.000  H
  C145     1.0000 0.71270  0.21330  0.38739  Biso   1.000  C
  C146     1.0000 0.64420  0.22250  0.34374  Biso   1.000  C
  H105     1.0000 0.60980  0.18150  0.33420  Biso   1.000  H
  C147     1.0000 0.62830  0.29070  0.31562  Biso   1.000  C
  H106     1.0000 0.58270  0.29610  0.28760  Biso   1.000  H
  C148     1.0000 0.68080  0.35360  0.32890  Biso   1.000  C
  H107     1.0000 0.66920  0.40000  0.30980  Biso   1.000  H
  C149     1.0000 0.74820  0.34610  0.36943  Biso   1.000  C
  H108     1.0000 0.78300  0.38720  0.37720  Biso   1.000  H
  C150     1.0000 0.76560  0.27630  0.39969  Biso   1.000  C
  Cu6      1.0000 0.41990  0.85345  0.46448  Biso   1.000  Cu
  N31      1.0000 0.48404  0.90742  0.39854  Biso   1.000  N
  N32      1.0000 0.38728  0.96304  0.48287  Biso   1.000  N
  N33      1.0000 0.33900  0.00880  0.51865  Biso   1.000  N
  N34      1.0000 0.96237  0.26954  0.52375  Biso   1.000  N
  N35      1.0000 0.02550  0.25220  0.56957  Biso   1.000  N
  N36      1.0000 0.83284  0.27116  0.44121  Biso   1.000  N
  O11      1.0000 0.39916  0.08140  0.45081  Biso   1.000  O
  O12      1.0000 0.94535  0.15072  0.55113  Biso   1.000  O
  S11      1.0000 0.30827  0.16210  0.52021  Biso   1.000  S
  S12      1.0000 0.06571  0.12269  0.63643  Biso   1.000  S
  C151     1.0000 0.96850  0.37620  0.14414  Biso   1.000  C
  C152     1.0000 0.95840  0.29730  0.14602  Biso   1.000  C
  H109     1.0000 0.98290  0.26670  0.11780  Biso   1.000  H
  C153     1.0000 0.91270  0.26520  0.18920  Biso   1.000  C
  H110     1.0000 0.90660  0.21280  0.19020  Biso   1.000  H
  C154     1.0000 0.87480  0.31030  0.23216  Biso   1.000  C
  H111     1.0000 0.84390  0.28740  0.26120  Biso   1.000  H
  C155     1.0000 0.88290  0.38770  0.23161  Biso   1.000  C
  H112     1.0000 0.85740  0.41710  0.26010  Biso   1.000  H
  C156     1.0000 0.93030  0.42320  0.18752  Biso   1.000  C
  C157     1.0000 0.94170  0.50240  0.18532  Biso   1.000  C
  H113     1.0000 0.91610  0.53400  0.21230  Biso   1.000  H
  C158     1.0000 0.99060  0.53230  0.14322  Biso   1.000  C
  H114     1.0000 0.00000  0.58420  0.14170  Biso   1.000  H
  C159     1.0000 0.02670  0.48230  0.10201  Biso   1.000  C
  C160     1.0000 0.07940  0.50780  0.05591  Biso   1.000  C
  C161     1.0000 0.15190  0.57710  0.00228  Biso   1.000  C
  C162     1.0000 0.25040  0.62910  0.91701  Biso   1.000  C
  H115     1.0000 0.21470  0.60670  0.88420  Biso   1.000  H
  H116     1.0000 0.29050  0.59160  0.93200  Biso   1.000  H
  C163     1.0000 0.29240  0.69910  0.89380  Biso   1.000  C
  H117     1.0000 0.32490  0.72210  0.92820  Biso   1.000  H
  H118     1.0000 0.25100  0.73550  0.87920  Biso   1.000  H
  C164     1.0000 0.34690  0.68320  0.84240  Biso   1.000  C
  H119     1.0000 0.31430  0.65960  0.80840  Biso   1.000  H
  H120     1.0000 0.36670  0.73110  0.82750  Biso   1.000  H
  C165     1.0000 0.48770  0.68220  0.91623  Biso   1.000  C
  C166     1.0000 0.58190  0.70930  0.98572  Biso   1.000  C
  C167     1.0000 0.65370  0.70550  0.02948  Biso   1.000  C
  C168     1.0000 0.70300  0.64050  0.03870  Biso   1.000  C
  H121     1.0000 0.69070  0.59590  0.01700  Biso   1.000  H
  C169     1.0000 0.76960  0.64510  0.08060  Biso   1.000  C
  H122     1.0000 0.80320  0.60310  0.08800  Biso   1.000  H
  C170     1.0000 0.78730  0.71330  0.11261  Biso   1.000  C
  C171     1.0000 0.85580  0.72250  0.15626  Biso   1.000  C
  H123     1.0000 0.89020  0.68150  0.16580  Biso   1.000  H
  C172     1.0000 0.87170  0.79070  0.18438  Biso   1.000  C
  H124     1.0000 0.91730  0.79610  0.21240  Biso   1.000  H
  C173     1.0000 0.81920  0.85360  0.17110  Biso   1.000  C
  H125     1.0000 0.83080  0.90000  0.19020  Biso   1.000  H
  C174     1.0000 0.75180  0.84610  0.13057  Biso   1.000  C
  H126     1.0000 0.71700  0.88720  0.12280  Biso   1.000  H
  C175     1.0000 0.73440  0.77630  0.10031  Biso   1.000  C
  Cu7      1.0000 0.08010  0.35345  0.03552  Biso   1.000  Cu
  N37      1.0000 0.01596  0.40742  0.10146  Biso   1.000  N
  N38      1.0000 0.11272  0.46304  0.01713  Biso   1.000  N
  N39      1.0000 0.16100  0.50880  0.98135  Biso   1.000  N
  N40      1.0000 0.53763  0.76954  0.97625  Biso   1.000  N
  N41      1.0000 0.47450  0.75220  0.93043  Biso   1.000  N
  N42      1.0000 0.66716  0.77116  0.05879  Biso   1.000  N
  O13      1.0000 0.10084  0.58140  0.04919  Biso   1.000  O
  O14      1.0000 0.55465  0.65072  0.94887  Biso   1.000  O
  S13      1.0000 0.19173  0.66210  0.97979  Biso   1.000  S
  S14      1.0000 0.43429  0.62269  0.86357  Biso   1.000  S
  C176     1.0000 0.46850  0.87620  0.14414  Biso   1.000  C
  C177     1.0000 0.45840  0.79730  0.14602  Biso   1.000  C
  H127     1.0000 0.48290  0.76670  0.11780  Biso   1.000  H
  C178     1.0000 0.41270  0.76520  0.18920  Biso   1.000  C
  H128     1.0000 0.40660  0.71280  0.19020  Biso   1.000  H
  C179     1.0000 0.37480  0.81030  0.23216  Biso   1.000  C
  H129     1.0000 0.34390  0.78740  0.26120  Biso   1.000  H
  C180     1.0000 0.38290  0.88770  0.23161  Biso   1.000  C
  H130     1.0000 0.35740  0.91710  0.26010  Biso   1.000  H
  C181     1.0000 0.43030  0.92320  0.18752  Biso   1.000  C
  C182     1.0000 0.44170  0.00240  0.18532  Biso   1.000  C
  H131     1.0000 0.41610  0.03400  0.21230  Biso   1.000  H
  C183     1.0000 0.49060  0.03230  0.14322  Biso   1.000  C
  H132     1.0000 0.50000  0.08420  0.14170  Biso   1.000  H
  C184     1.0000 0.52670  0.98230  0.10201  Biso   1.000  C
  C185     1.0000 0.57940  0.00780  0.05591  Biso   1.000  C
  C186     1.0000 0.65190  0.07710  0.00228  Biso   1.000  C
  C187     1.0000 0.75040  0.12910  0.91701  Biso   1.000  C
  H133     1.0000 0.71470  0.10670  0.88420  Biso   1.000  H
  H134     1.0000 0.79050  0.09160  0.93200  Biso   1.000  H
  C188     1.0000 0.79240  0.19910  0.89380  Biso   1.000  C
  H135     1.0000 0.82490  0.22210  0.92820  Biso   1.000  H
  H136     1.0000 0.75100  0.23550  0.87920  Biso   1.000  H
  C189     1.0000 0.84690  0.18320  0.84240  Biso   1.000  C
  H137     1.0000 0.81430  0.15960  0.80840  Biso   1.000  H
  H138     1.0000 0.86670  0.23110  0.82750  Biso   1.000  H
  C190     1.0000 0.98770  0.18220  0.91623  Biso   1.000  C
  C191     1.0000 0.08190  0.20930  0.98572  Biso   1.000  C
  C192     1.0000 0.15370  0.20550  0.02948  Biso   1.000  C
  C193     1.0000 0.20300  0.14050  0.03870  Biso   1.000  C
  H139     1.0000 0.19070  0.09590  0.01700  Biso   1.000  H
  C194     1.0000 0.26960  0.14510  0.08060  Biso   1.000  C
  H140     1.0000 0.30320  0.10310  0.08800  Biso   1.000  H
  C195     1.0000 0.28730  0.21330  0.11261  Biso   1.000  C
  C196     1.0000 0.35580  0.22250  0.15626  Biso   1.000  C
  H141     1.0000 0.39020  0.18150  0.16580  Biso   1.000  H
  C197     1.0000 0.37170  0.29070  0.18438  Biso   1.000  C
  H142     1.0000 0.41730  0.29610  0.21240  Biso   1.000  H
  C198     1.0000 0.31920  0.35360  0.17110  Biso   1.000  C
  H143     1.0000 0.33080  0.40000  0.19020  Biso   1.000  H
  C199     1.0000 0.25180  0.34610  0.13057  Biso   1.000  C
  H144     1.0000 0.21700  0.38720  0.12280  Biso   1.000  H
  C200     1.0000 0.23440  0.27630  0.10031  Biso   1.000  C
  Cu8      1.0000 0.58010  0.85345  0.03552  Biso   1.000  Cu
  N43      1.0000 0.51596  0.90742  0.10146  Biso   1.000  N
  N44      1.0000 0.61272  0.96304  0.01713  Biso   1.000  N
  N45      1.0000 0.66100  0.00880  0.98135  Biso   1.000  N
  N46      1.0000 0.03763  0.26954  0.97625  Biso   1.000  N
  N47      1.0000 0.97450  0.25220  0.93043  Biso   1.000  N
  N48      1.0000 0.16716  0.27116  0.05879  Biso   1.000  N
  O15      1.0000 0.60084  0.08140  0.04919  Biso   1.000  O
  O16      1.0000 0.05465  0.15072  0.94887  Biso   1.000  O
  S15      1.0000 0.69173  0.16210  0.97979  Biso   1.000  S
  S16      1.0000 0.93429  0.12269  0.86357  Biso   1.000  S
