data_image0
_cell_length_a       10.6663
_cell_length_b       14.314
_cell_length_c       14.573
_cell_angle_alpha    85.403
_cell_angle_beta     73.421
_cell_angle_gamma    82.02

_symmetry_space_group_name_H-M    "P 1"
_symmetry_int_tables_number       1

loop_
  _symmetry_equiv_pos_as_xyz
  'x, y, z'

loop_
  _atom_site_label
  _atom_site_occupancy
  _atom_site_fract_x
  _atom_site_fract_y
  _atom_site_fract_z
  _atom_site_thermal_displace_type
  _atom_site_B_iso_or_equiv
  _atom_site_type_symbol
  Co1      1.0000 0.04386  0.23362  0.27813  Biso   1.000  Co
  N1       1.0000 0.03240  0.36640  0.20030  Biso   1.000  N
  N2       1.0000 0.20480  0.20940  0.15250  Biso   1.000  N
  N3       1.0000 0.89510  0.18270  0.22980  Biso   1.000  N
  N4       1.0000 0.05440  0.08890  0.33080  Biso   1.000  N
  N5       1.0000 0.91000  0.28610  0.40890  Biso   1.000  N
  N6       1.0000 0.17570  0.28170  0.34820  Biso   1.000  N
  C1       1.0000 0.94700  0.44280  0.22560  Biso   1.000  C
  H1       1.0000 0.87930  0.44030  0.28320  Biso   1.000  H
  C2       1.0000 0.95420  0.52760  0.16950  Biso   1.000  C
  H2       1.0000 0.89230  0.58070  0.18910  Biso   1.000  H
  C3       1.0000 0.05310  0.53130  0.08580  Biso   1.000  C
  H3       1.0000 0.05910  0.58750  0.04770  Biso   1.000  H
  C4       1.0000 0.14550  0.45230  0.05640  Biso   1.000  C
  C5       1.0000 0.25110  0.44930  0.97030  Biso   1.000  C
  H4       1.0000 0.25890  0.50290  0.92830  Biso   1.000  H
  C6       1.0000 0.33920  0.37290  0.94720  Biso   1.000  C
  H5       1.0000 0.40860  0.37420  0.89060  Biso   1.000  H
  C7       1.0000 0.32880  0.28840  0.00860  Biso   1.000  C
  C8       1.0000 0.42000  0.20730  0.99090  Biso   1.000  C
  H6       1.0000 0.49320  0.20570  0.93650  Biso   1.000  H
  C9       1.0000 0.40240  0.13030  0.05290  Biso   1.000  C
  H7       1.0000 0.46340  0.07540  0.04200  Biso   1.000  H
  C10      1.0000 0.29270  0.13450  0.13250  Biso   1.000  C
  H8       1.0000 0.28070  0.08090  0.17430  Biso   1.000  H
  C11      1.0000 0.22330  0.28700  0.09160  Biso   1.000  C
  C12      1.0000 0.13010  0.37030  0.11670  Biso   1.000  C
  C13      1.0000 0.81680  0.22850  0.18190  Biso   1.000  C
  H9       1.0000 0.82660  0.29210  0.16370  Biso   1.000  H
  C14      1.0000 0.71930  0.18870  0.15620  Biso   1.000  C
  H10      1.0000 0.66660  0.22440  0.12100  Biso   1.000  H
  C15      1.0000 0.70310  0.09690  0.18370  Biso   1.000  C
  H11      1.0000 0.63820  0.06840  0.16790  Biso   1.000  H
  C16      1.0000 0.78280  0.04550  0.23530  Biso   1.000  C
  C17      1.0000 0.77480  0.94750  0.26530  Biso   1.000  C
  H12      1.0000 0.71140  0.91570  0.25140  Biso   1.000  H
  C18      1.0000 0.85760  0.90100  0.31300  Biso   1.000  C
  H13      1.0000 0.85040  0.83710  0.33130  Biso   1.000  H
  C19      1.0000 0.95510  0.94450  0.33670  Biso   1.000  C
  C20      1.0000 0.04410  0.89960  0.38470  Biso   1.000  C
  H14      1.0000 0.04260  0.83520  0.40280  Biso   1.000  H
  C21      1.0000 0.13340  0.94780  0.40600  Biso   1.000  C
  H15      1.0000 0.19310  0.91730  0.43860  Biso   1.000  H
  C22      1.0000 0.13400  0.04490  0.37760  Biso   1.000  C
  H16      1.0000 0.19400  0.07880  0.39320  Biso   1.000  H
  C23      1.0000 0.96500  0.04120  0.30870  Biso   1.000  C
  C24      1.0000 0.87930  0.09130  0.25750  Biso   1.000  C
  C25      1.0000 0.78110  0.28800  0.43800  Biso   1.000  C
  H17      1.0000 0.73960  0.25930  0.40070  Biso   1.000  H
  C26      1.0000 0.70210  0.33090  0.52250  Biso   1.000  C
  H18      1.0000 0.61040  0.32990  0.54140  Biso   1.000  H
  C27      1.0000 0.76160  0.37430  0.57670  Biso   1.000  C
  H19      1.0000 0.71050  0.40500  0.63220  Biso   1.000  H
  C28      1.0000 0.89830  0.37240  0.54890  Biso   1.000  C
  C29      1.0000 0.96910  0.41490  0.60160  Biso   1.000  C
  H20      1.0000 0.92190  0.44580  0.65800  Biso   1.000  H
  C30      1.0000 0.10080  0.41150  0.57250  Biso   1.000  C
  H21      1.0000 0.14410  0.43850  0.60980  Biso   1.000  H
  C31      1.0000 0.17700  0.36740  0.48540  Biso   1.000  C
  C32      1.0000 0.31400  0.36440  0.45070  Biso   1.000  C
  H22      1.0000 0.36140  0.39190  0.48470  Biso   1.000  H
  C33      1.0000 0.37800  0.32130  0.36740  Biso   1.000  C
  H23      1.0000 0.47000  0.31910  0.34290  Biso   1.000  H
  C34      1.0000 0.30530  0.28010  0.31860  Biso   1.000  C
  H24      1.0000 0.35110  0.24970  0.26160  Biso   1.000  H
  C35      1.0000 0.11100  0.32500  0.43110  Biso   1.000  C
  C36      1.0000 0.96970  0.32750  0.46380  Biso   1.000  C
  Co2      1.0000 0.95614  0.76638  0.72187  Biso   1.000  Co
  N7       1.0000 0.96760  0.63360  0.79970  Biso   1.000  N
  N8       1.0000 0.79520  0.79060  0.84750  Biso   1.000  N
  N9       1.0000 0.10490  0.81730  0.77020  Biso   1.000  N
  N10      1.0000 0.94560  0.91110  0.66920  Biso   1.000  N
  N11      1.0000 0.09000  0.71390  0.59110  Biso   1.000  N
  N12      1.0000 0.82430  0.71830  0.65180  Biso   1.000  N
  C37      1.0000 0.05300  0.55720  0.77440  Biso   1.000  C
  H25      1.0000 0.12070  0.55970  0.71680  Biso   1.000  H
  C38      1.0000 0.04580  0.47240  0.83050  Biso   1.000  C
  H26      1.0000 0.10770  0.41930  0.81090  Biso   1.000  H
  C39      1.0000 0.94690  0.46870  0.91420  Biso   1.000  C
  H27      1.0000 0.94090  0.41250  0.95230  Biso   1.000  H
  C40      1.0000 0.85450  0.54770  0.94360  Biso   1.000  C
  C41      1.0000 0.74890  0.55070  0.02970  Biso   1.000  C
  H28      1.0000 0.74110  0.49710  0.07170  Biso   1.000  H
  C42      1.0000 0.66080  0.62710  0.05280  Biso   1.000  C
  H29      1.0000 0.59140  0.62580  0.10940  Biso   1.000  H
  C43      1.0000 0.67120  0.71160  0.99140  Biso   1.000  C
  C44      1.0000 0.58000  0.79270  0.00910  Biso   1.000  C
  H30      1.0000 0.50680  0.79430  0.06350  Biso   1.000  H
  C45      1.0000 0.59760  0.86970  0.94710  Biso   1.000  C
  H31      1.0000 0.53660  0.92460  0.95800  Biso   1.000  H
  C46      1.0000 0.70730  0.86550  0.86750  Biso   1.000  C
  H32      1.0000 0.71930  0.91910  0.82570  Biso   1.000  H
  C47      1.0000 0.77670  0.71300  0.90840  Biso   1.000  C
  C48      1.0000 0.86990  0.62970  0.88330  Biso   1.000  C
  C49      1.0000 0.18320  0.77150  0.81810  Biso   1.000  C
  H33      1.0000 0.17340  0.70790  0.83630  Biso   1.000  H
  C50      1.0000 0.28070  0.81130  0.84380  Biso   1.000  C
  H34      1.0000 0.33340  0.77560  0.87900  Biso   1.000  H
  C51      1.0000 0.29690  0.90310  0.81630  Biso   1.000  C
  H35      1.0000 0.36180  0.93160  0.83210  Biso   1.000  H
  C52      1.0000 0.21720  0.95450  0.76470  Biso   1.000  C
  C53      1.0000 0.22520  0.05250  0.73470  Biso   1.000  C
  H36      1.0000 0.28860  0.08430  0.74860  Biso   1.000  H
  C54      1.0000 0.14240  0.09900  0.68700  Biso   1.000  C
  H37      1.0000 0.14960  0.16290  0.66870  Biso   1.000  H
  C55      1.0000 0.04490  0.05550  0.66330  Biso   1.000  C
  C56      1.0000 0.95590  0.10040  0.61530  Biso   1.000  C
  H38      1.0000 0.95740  0.16480  0.59720  Biso   1.000  H
  C57      1.0000 0.86660  0.05220  0.59400  Biso   1.000  C
  H39      1.0000 0.80690  0.08270  0.56140  Biso   1.000  H
  C58      1.0000 0.86600  0.95510  0.62240  Biso   1.000  C
  H40      1.0000 0.80600  0.92120  0.60680  Biso   1.000  H
  C59      1.0000 0.03500  0.95880  0.69130  Biso   1.000  C
  C60      1.0000 0.12070  0.90870  0.74250  Biso   1.000  C
  C61      1.0000 0.21890  0.71200  0.56200  Biso   1.000  C
  H41      1.0000 0.26040  0.74070  0.59930  Biso   1.000  H
  C62      1.0000 0.29790  0.66910  0.47750  Biso   1.000  C
  H42      1.0000 0.38960  0.67010  0.45860  Biso   1.000  H
  C63      1.0000 0.23840  0.62570  0.42330  Biso   1.000  C
  H43      1.0000 0.28950  0.59500  0.36780  Biso   1.000  H
  C64      1.0000 0.10170  0.62760  0.45110  Biso   1.000  C
  C65      1.0000 0.03090  0.58510  0.39840  Biso   1.000  C
  H44      1.0000 0.07810  0.55420  0.34200  Biso   1.000  H
  C66      1.0000 0.89920  0.58850  0.42750  Biso   1.000  C
  H45      1.0000 0.85590  0.56150  0.39020  Biso   1.000  H
  C67      1.0000 0.82300  0.63260  0.51460  Biso   1.000  C
  C68      1.0000 0.68600  0.63560  0.54930  Biso   1.000  C
  H46      1.0000 0.63860  0.60810  0.51530  Biso   1.000  H
  C69      1.0000 0.62200  0.67870  0.63260  Biso   1.000  C
  H47      1.0000 0.53000  0.68090  0.65710  Biso   1.000  H
  C70      1.0000 0.69470  0.71990  0.68140  Biso   1.000  C
  H48      1.0000 0.64890  0.75030  0.73840  Biso   1.000  H
  C71      1.0000 0.88900  0.67500  0.56890  Biso   1.000  C
  C72      1.0000 0.03030  0.67250  0.53620  Biso   1.000  C
