data_image0
_cell_length_a       9.9863
_cell_length_b       10.3722
_cell_length_c       15.7502
_cell_angle_alpha    91.755
_cell_angle_beta     99.029
_cell_angle_gamma    95.042

_symmetry_space_group_name_H-M    "P 1"
_symmetry_int_tables_number       1

loop_
  _symmetry_equiv_pos_as_xyz
  'x, y, z'

loop_
  _atom_site_label
  _atom_site_occupancy
  _atom_site_fract_x
  _atom_site_fract_y
  _atom_site_fract_z
  _atom_site_thermal_displace_type
  _atom_site_B_iso_or_equiv
  _atom_site_type_symbol
  C1       1.0000 0.80710  0.27280  0.90705  Biso   1.000  C
  H1       1.0000 0.80860  0.32530  0.86030  Biso   1.000  H
  C2       1.0000 0.91560  0.25490  0.96616  Biso   1.000  C
  H2       1.0000 0.00470  0.29070  0.96760  Biso   1.000  H
  C3       1.0000 0.73380  0.14370  0.99689  Biso   1.000  C
  H3       1.0000 0.67740  0.08950  0.02480  Biso   1.000  H
  C4       1.0000 0.14490  0.24120  0.78415  Biso   1.000  C
  H4       1.0000 0.11740  0.22610  0.83700  Biso   1.000  H
  C5       1.0000 0.06150  0.26580  0.71204  Biso   1.000  C
  H5       1.0000 0.96800  0.27100  0.70590  Biso   1.000  H
  C6       1.0000 0.27060  0.26650  0.68687  Biso   1.000  C
  H6       1.0000 0.34580  0.27280  0.65860  Biso   1.000  H
  C7       1.0000 0.28120  0.99710  0.47052  Biso   1.000  C
  H7       1.0000 0.28550  0.03320  0.52580  Biso   1.000  H
  C8       1.0000 0.19810  0.04840  0.40408  Biso   1.000  C
  H8       1.0000 0.14710  0.11610  0.41510  Biso   1.000  H
  C9       1.0000 0.19130  0.99810  0.32065  Biso   1.000  C
  C10      1.0000 0.27110  0.89760  0.30983  Biso   1.000  C
  H9       1.0000 0.27180  0.86160  0.25510  Biso   1.000  H
  C11      1.0000 0.34840  0.85190  0.37969  Biso   1.000  C
  H10      1.0000 0.39950  0.78340  0.37060  Biso   1.000  H
  C12      1.0000 0.01790  0.44260  0.15817  Biso   1.000  C
  H11      1.0000 0.08070  0.45000  0.12040  Biso   1.000  H
  C13      1.0000 0.06370  0.41410  0.24226  Biso   1.000  C
  H12      1.0000 0.15550  0.40480  0.26020  Biso   1.000  H
  C14      1.0000 0.97190  0.39930  0.29992  Biso   1.000  C
  C15      1.0000 0.83670  0.41390  0.26798  Biso   1.000  C
  H13      1.0000 0.77060  0.40290  0.30340  Biso   1.000  H
  C16      1.0000 0.80080  0.44470  0.18335  Biso   1.000  C
  H14      1.0000 0.70990  0.45560  0.16360  Biso   1.000  H
  C17      1.0000 0.01610  0.36850  0.39079  Biso   1.000  C
  C18      1.0000 0.14640  0.41070  0.43354  Biso   1.000  C
  H15      1.0000 0.20650  0.45810  0.40420  Biso   1.000  H
  C19      1.0000 0.18820  0.38360  0.51815  Biso   1.000  C
  H16      1.0000 0.27510  0.41390  0.54570  Biso   1.000  H
  C20      1.0000 0.10090  0.31160  0.56174  Biso   1.000  C
  C21      1.0000 0.97150  0.26820  0.52087  Biso   1.000  C
  H17      1.0000 0.91240  0.21930  0.55020  Biso   1.000  H
  C22      1.0000 0.93010  0.29730  0.43654  Biso   1.000  C
  H18      1.0000 0.84240  0.26850  0.40980  Biso   1.000  H
  C23      1.0000 0.94760  0.12820  0.09904  Biso   1.000  C
  C24      1.0000 0.08100  0.10360  0.09647  Biso   1.000  C
  H19      1.0000 0.11800  0.11460  0.04620  Biso   1.000  H
  C25      1.0000 0.15820  0.06290  0.16904  Biso   1.000  C
  H20      1.0000 0.24770  0.04600  0.16730  Biso   1.000  H
  C26      1.0000 0.10550  0.04620  0.24510  Biso   1.000  C
  C27      1.0000 0.97140  0.07140  0.24604  Biso   1.000  C
  H21      1.0000 0.93440  0.06140  0.29640  Biso   1.000  H
  C28      1.0000 0.89220  0.11100  0.17361  Biso   1.000  C
  H22      1.0000 0.80210  0.12600  0.17480  Biso   1.000  H
  Cd1      1.0000 0.47879  0.20674  0.85471  Biso   1.000  Cd
  N1       1.0000 0.69323  0.20182  0.92609  Biso   1.000  N
  N2       1.0000 0.86848  0.17278  0.02407  Biso   1.000  N
  N3       1.0000 0.35540  0.89920  0.46020  Biso   1.000  N
  N4       1.0000 0.27630  0.24150  0.76850  Biso   1.000  N
  N5       1.0000 0.14254  0.28190  0.64895  Biso   1.000  N
  N6       1.0000 0.88890  0.45990  0.12818  Biso   1.000  N
  C29      1.0000 0.19290  0.72720  0.09295  Biso   1.000  C
  H23      1.0000 0.19140  0.67470  0.13970  Biso   1.000  H
  C30      1.0000 0.08440  0.74510  0.03384  Biso   1.000  C
  H24      1.0000 0.99530  0.70930  0.03240  Biso   1.000  H
  C31      1.0000 0.26620  0.85630  0.00311  Biso   1.000  C
  H25      1.0000 0.32260  0.91050  0.97520  Biso   1.000  H
  C32      1.0000 0.85510  0.75880  0.21585  Biso   1.000  C
  H26      1.0000 0.88260  0.77390  0.16300  Biso   1.000  H
  C33      1.0000 0.93850  0.73420  0.28796  Biso   1.000  C
  H27      1.0000 0.03200  0.72900  0.29410  Biso   1.000  H
  C34      1.0000 0.72940  0.73350  0.31313  Biso   1.000  C
  H28      1.0000 0.65420  0.72720  0.34140  Biso   1.000  H
  C35      1.0000 0.71880  0.00290  0.52948  Biso   1.000  C
  H29      1.0000 0.71450  0.96680  0.47420  Biso   1.000  H
  C36      1.0000 0.80190  0.95160  0.59592  Biso   1.000  C
  H30      1.0000 0.85290  0.88390  0.58490  Biso   1.000  H
  C37      1.0000 0.80870  0.00190  0.67935  Biso   1.000  C
  C38      1.0000 0.72890  0.10240  0.69017  Biso   1.000  C
  H31      1.0000 0.72820  0.13840  0.74490  Biso   1.000  H
  C39      1.0000 0.65160  0.14810  0.62031  Biso   1.000  C
  H32      1.0000 0.60050  0.21660  0.62940  Biso   1.000  H
  C40      1.0000 0.98210  0.55740  0.84183  Biso   1.000  C
  H33      1.0000 0.91930  0.55000  0.87960  Biso   1.000  H
  C41      1.0000 0.93630  0.58590  0.75774  Biso   1.000  C
  H34      1.0000 0.84450  0.59520  0.73980  Biso   1.000  H
  C42      1.0000 0.02810  0.60070  0.70008  Biso   1.000  C
  C43      1.0000 0.16330  0.58610  0.73202  Biso   1.000  C
  H35      1.0000 0.22940  0.59710  0.69660  Biso   1.000  H
  C44      1.0000 0.19920  0.55530  0.81665  Biso   1.000  C
  H36      1.0000 0.29010  0.54440  0.83640  Biso   1.000  H
  C45      1.0000 0.98390  0.63150  0.60921  Biso   1.000  C
  C46      1.0000 0.85360  0.58930  0.56646  Biso   1.000  C
  H37      1.0000 0.79350  0.54190  0.59580  Biso   1.000  H
  C47      1.0000 0.81180  0.61640  0.48185  Biso   1.000  C
  H38      1.0000 0.72490  0.58610  0.45430  Biso   1.000  H
  C48      1.0000 0.89910  0.68840  0.43826  Biso   1.000  C
  C49      1.0000 0.02850  0.73180  0.47913  Biso   1.000  C
  H39      1.0000 0.08760  0.78070  0.44980  Biso   1.000  H
  C50      1.0000 0.06990  0.70270  0.56346  Biso   1.000  C
  H40      1.0000 0.15760  0.73150  0.59020  Biso   1.000  H
  C51      1.0000 0.05240  0.87180  0.90096  Biso   1.000  C
  C52      1.0000 0.91900  0.89640  0.90353  Biso   1.000  C
  H41      1.0000 0.88200  0.88540  0.95380  Biso   1.000  H
  C53      1.0000 0.84180  0.93710  0.83096  Biso   1.000  C
  H42      1.0000 0.75230  0.95400  0.83270  Biso   1.000  H
  C54      1.0000 0.89450  0.95380  0.75490  Biso   1.000  C
  C55      1.0000 0.02860  0.92860  0.75396  Biso   1.000  C
  H43      1.0000 0.06560  0.93860  0.70360  Biso   1.000  H
  C56      1.0000 0.10780  0.88900  0.82639  Biso   1.000  C
  H44      1.0000 0.19790  0.87400  0.82520  Biso   1.000  H
  Cd2      1.0000 0.52121  0.79326  0.14529  Biso   1.000  Cd
  N7       1.0000 0.30677  0.79818  0.07391  Biso   1.000  N
  N8       1.0000 0.13152  0.82722  0.97593  Biso   1.000  N
  N9       1.0000 0.64460  0.10080  0.53980  Biso   1.000  N
  N10      1.0000 0.72370  0.75850  0.23150  Biso   1.000  N
  N11      1.0000 0.85746  0.71810  0.35105  Biso   1.000  N
  N12      1.0000 0.11110  0.54010  0.87182  Biso   1.000  N
