data_image0
_cell_length_a       10.3336
_cell_length_b       14.3984
_cell_length_c       15.2649
_cell_angle_alpha    90.673
_cell_angle_beta     98.12
_cell_angle_gamma    110.761

_symmetry_space_group_name_H-M    "P 1"
_symmetry_int_tables_number       1

loop_
  _symmetry_equiv_pos_as_xyz
  'x, y, z'

loop_
  _atom_site_label
  _atom_site_occupancy
  _atom_site_fract_x
  _atom_site_fract_y
  _atom_site_fract_z
  _atom_site_thermal_displace_type
  _atom_site_B_iso_or_equiv
  _atom_site_type_symbol
  C1       1.0000 0.18120  0.42880  0.38770  Biso   1.000  C
  C2       1.0000 0.24300  0.45821  0.47640  Biso   1.000  C
  C3       1.0000 0.25750  0.55645  0.50517  Biso   1.000  C
  C4       1.0000 0.21500  0.61977  0.44780  Biso   1.000  C
  C5       1.0000 0.15570  0.58829  0.35810  Biso   1.000  C
  C6       1.0000 0.13790  0.49097  0.33217  Biso   1.000  C
  C7       1.0000 0.06840  0.43477  0.24478  Biso   1.000  C
  C8       1.0000 0.15400  0.33317  0.33483  Biso   1.000  C
  C9       1.0000 0.11320  0.65298  0.29307  Biso   1.000  C
  C10      1.0000 0.17630  0.67690  0.21840  Biso   1.000  C
  H1       1.0000 0.25260  0.65700  0.21060  Biso   1.000  H
  C11      1.0000 0.12860  0.72990  0.15480  Biso   1.000  C
  H2       1.0000 0.17300  0.74670  0.10380  Biso   1.000  H
  C12      1.0000 0.01810  0.75850  0.16480  Biso   1.000  C
  H3       1.0000 0.98410  0.79310  0.12000  Biso   1.000  H
  C13      1.0000 0.95710  0.73690  0.23970  Biso   1.000  C
  H4       1.0000 0.88150  0.75750  0.24750  Biso   1.000  H
  C14      1.0000 0.00510  0.68540  0.30380  Biso   1.000  C
  H5       1.0000 0.96340  0.67190  0.35610  Biso   1.000  H
  C15      1.0000 0.23380  0.72254  0.48178  Biso   1.000  C
  C16      1.0000 0.31700  0.80530  0.44450  Biso   1.000  C
  H6       1.0000 0.36070  0.79700  0.39580  Biso   1.000  H
  C17      1.0000 0.33720  0.89990  0.47740  Biso   1.000  C
  H7       1.0000 0.39460  0.95630  0.45130  Biso   1.000  H
  C18      1.0000 0.27390  0.91280  0.54840  Biso   1.000  C
  H8       1.0000 0.28890  0.97800  0.57160  Biso   1.000  H
  C19      1.0000 0.19000  0.83160  0.58500  Biso   1.000  C
  H9       1.0000 0.14560  0.84020  0.63330  Biso   1.000  H
  C20      1.0000 0.16960  0.73720  0.55206  Biso   1.000  C
  H10      1.0000 0.11060  0.68120  0.57780  Biso   1.000  H
  C21      1.0000 0.31980  0.59491  0.59910  Biso   1.000  C
  C22      1.0000 0.44830  0.67270  0.61892  Biso   1.000  C
  H11      1.0000 0.49990  0.70040  0.57270  Biso   1.000  H
  C23      1.0000 0.50090  0.70970  0.70560  Biso   1.000  C
  H12      1.0000 0.58890  0.76270  0.71870  Biso   1.000  H
  C24      1.0000 0.42780  0.67080  0.77280  Biso   1.000  C
  H13      1.0000 0.46420  0.69750  0.83210  Biso   1.000  H
  C25      1.0000 0.30190  0.59320  0.75458  Biso   1.000  C
  H14      1.0000 0.25150  0.56550  0.80130  Biso   1.000  H
  C26      1.0000 0.24860  0.55540  0.66821  Biso   1.000  C
  H15      1.0000 0.16160  0.50130  0.65600  Biso   1.000  H
  C27      1.0000 0.29150  0.39208  0.53592  Biso   1.000  C
  C28      1.0000 0.42470  0.42530  0.58625  Biso   1.000  C
  H16      1.0000 0.48640  0.49170  0.58250  Biso   1.000  H
  C29      1.0000 0.46840  0.36370  0.64130  Biso   1.000  C
  H17      1.0000 0.55990  0.38780  0.67490  Biso   1.000  H
  C30      1.0000 0.38150  0.26790  0.64830  Biso   1.000  C
  H18      1.0000 0.41160  0.22590  0.68700  Biso   1.000  H
  C31      1.0000 0.25070  0.23340  0.59890  Biso   1.000  C
  H19      1.0000 0.19030  0.16670  0.60290  Biso   1.000  H
  C32      1.0000 0.20560  0.29470  0.54328  Biso   1.000  C
  H20      1.0000 0.11430  0.26950  0.50960  Biso   1.000  H
  C33      1.0000 0.03710  0.26727  0.18019  Biso   1.000  C
  C34      1.0000 0.89690  0.22500  0.14403  Biso   1.000  C
  H21      1.0000 0.82910  0.24380  0.16790  Biso   1.000  H
  C35      1.0000 0.85600  0.15485  0.07257  Biso   1.000  C
  C36      1.0000 0.95690  0.12884  0.03781  Biso   1.000  C
  H22      1.0000 0.92920  0.07990  0.98970  Biso   1.000  H
  C37      1.0000 0.09760  0.17370  0.07278  Biso   1.000  C
  C38      1.0000 0.13730  0.24164  0.14548  Biso   1.000  C
  H23      1.0000 0.23310  0.27050  0.17140  Biso   1.000  H
  C39      1.0000 0.21070  0.15265  0.03247  Biso   1.000  C
  C40      1.0000 0.70360  0.10917  0.03119  Biso   1.000  C
  Mn1      1.0000 0.41926  0.12182  0.97735  Biso   1.000  Mn
  N1       1.0000 0.08109  0.34133  0.25275  Biso   1.000  N
  O1       1.0000 0.18705  0.26302  0.35369  Biso   1.000  O
  O2       1.0000 0.01130  0.45931  0.17947  Biso   1.000  O
  O3       1.0000 0.62636  0.15721  0.04385  Biso   1.000  O
  O4       1.0000 0.66394  0.02934  0.98531  Biso   1.000  O
  O5       1.0000 0.18580  0.11786  0.95409  Biso   1.000  O
  O6       1.0000 0.32789  0.17261  0.08006  Biso   1.000  O
  C41      1.0000 0.81880  0.57120  0.61230  Biso   1.000  C
  C42      1.0000 0.75700  0.54179  0.52360  Biso   1.000  C
  C43      1.0000 0.74250  0.44355  0.49483  Biso   1.000  C
  C44      1.0000 0.78500  0.38023  0.55220  Biso   1.000  C
  C45      1.0000 0.84430  0.41171  0.64190  Biso   1.000  C
  C46      1.0000 0.86210  0.50903  0.66783  Biso   1.000  C
  C47      1.0000 0.93160  0.56523  0.75522  Biso   1.000  C
  C48      1.0000 0.84600  0.66683  0.66517  Biso   1.000  C
  C49      1.0000 0.88680  0.34702  0.70693  Biso   1.000  C
  C50      1.0000 0.82370  0.32310  0.78160  Biso   1.000  C
  H24      1.0000 0.74740  0.34300  0.78940  Biso   1.000  H
  C51      1.0000 0.87140  0.27010  0.84520  Biso   1.000  C
  H25      1.0000 0.82700  0.25330  0.89620  Biso   1.000  H
  C52      1.0000 0.98190  0.24150  0.83520  Biso   1.000  C
  H26      1.0000 0.01590  0.20690  0.88000  Biso   1.000  H
  C53      1.0000 0.04290  0.26310  0.76030  Biso   1.000  C
  H27      1.0000 0.11850  0.24250  0.75250  Biso   1.000  H
  C54      1.0000 0.99490  0.31460  0.69620  Biso   1.000  C
  H28      1.0000 0.03660  0.32810  0.64390  Biso   1.000  H
  C55      1.0000 0.76620  0.27746  0.51822  Biso   1.000  C
  C56      1.0000 0.68300  0.19470  0.55550  Biso   1.000  C
  H29      1.0000 0.63930  0.20300  0.60420  Biso   1.000  H
  C57      1.0000 0.66280  0.10010  0.52260  Biso   1.000  C
  H30      1.0000 0.60540  0.04370  0.54870  Biso   1.000  H
  C58      1.0000 0.72610  0.08720  0.45160  Biso   1.000  C
  H31      1.0000 0.71110  0.02200  0.42840  Biso   1.000  H
  C59      1.0000 0.81000  0.16840  0.41500  Biso   1.000  C
  H32      1.0000 0.85440  0.15980  0.36670  Biso   1.000  H
  C60      1.0000 0.83040  0.26280  0.44794  Biso   1.000  C
  H33      1.0000 0.88940  0.31880  0.42220  Biso   1.000  H
  C61      1.0000 0.68020  0.40509  0.40090  Biso   1.000  C
  C62      1.0000 0.55170  0.32730  0.38108  Biso   1.000  C
  H34      1.0000 0.50010  0.29960  0.42730  Biso   1.000  H
  C63      1.0000 0.49910  0.29030  0.29440  Biso   1.000  C
  H35      1.0000 0.41110  0.23730  0.28130  Biso   1.000  H
  C64      1.0000 0.57220  0.32920  0.22720  Biso   1.000  C
  H36      1.0000 0.53580  0.30250  0.16790  Biso   1.000  H
  C65      1.0000 0.69810  0.40680  0.24542  Biso   1.000  C
  H37      1.0000 0.74850  0.43450  0.19870  Biso   1.000  H
  C66      1.0000 0.75140  0.44460  0.33179  Biso   1.000  C
  H38      1.0000 0.83840  0.49870  0.34400  Biso   1.000  H
  C67      1.0000 0.70850  0.60792  0.46408  Biso   1.000  C
  C68      1.0000 0.57530  0.57470  0.41375  Biso   1.000  C
  H39      1.0000 0.51360  0.50830  0.41750  Biso   1.000  H
  C69      1.0000 0.53160  0.63630  0.35870  Biso   1.000  C
  H40      1.0000 0.44010  0.61220  0.32510  Biso   1.000  H
  C70      1.0000 0.61850  0.73210  0.35170  Biso   1.000  C
  H41      1.0000 0.58840  0.77410  0.31300  Biso   1.000  H
  C71      1.0000 0.74930  0.76660  0.40110  Biso   1.000  C
  H42      1.0000 0.80970  0.83330  0.39710  Biso   1.000  H
  C72      1.0000 0.79440  0.70530  0.45672  Biso   1.000  C
  H43      1.0000 0.88570  0.73050  0.49040  Biso   1.000  H
  C73      1.0000 0.96290  0.73273  0.81981  Biso   1.000  C
  C74      1.0000 0.10310  0.77500  0.85597  Biso   1.000  C
  H44      1.0000 0.17090  0.75620  0.83210  Biso   1.000  H
  C75      1.0000 0.14400  0.84515  0.92743  Biso   1.000  C
  C76      1.0000 0.04310  0.87116  0.96219  Biso   1.000  C
  H45      1.0000 0.07080  0.92010  0.01030  Biso   1.000  H
  C77      1.0000 0.90240  0.82630  0.92722  Biso   1.000  C
  C78      1.0000 0.86270  0.75836  0.85452  Biso   1.000  C
  H46      1.0000 0.76690  0.72950  0.82860  Biso   1.000  H
  C79      1.0000 0.78930  0.84735  0.96753  Biso   1.000  C
  C80      1.0000 0.29640  0.89083  0.96881  Biso   1.000  C
  Mn2      1.0000 0.58074  0.87818  0.02265  Biso   1.000  Mn
  N2       1.0000 0.91891  0.65867  0.74725  Biso   1.000  N
  O7       1.0000 0.81295  0.73698  0.64631  Biso   1.000  O
  O8       1.0000 0.98870  0.54069  0.82053  Biso   1.000  O
  O9       1.0000 0.37364  0.84279  0.95615  Biso   1.000  O
  O10      1.0000 0.33606  0.97066  0.01469  Biso   1.000  O
  O11      1.0000 0.81420  0.88214  0.04591  Biso   1.000  O
  O12      1.0000 0.67211  0.82739  0.91994  Biso   1.000  O
