data_image0
_cell_length_a       16.3875
_cell_length_b       16.6136
_cell_length_c       14.7959
_cell_angle_alpha    90
_cell_angle_beta     90.654
_cell_angle_gamma    90

_symmetry_space_group_name_H-M    "P 1"
_symmetry_int_tables_number       1

loop_
  _symmetry_equiv_pos_as_xyz
  'x, y, z'

loop_
  _atom_site_label
  _atom_site_occupancy
  _atom_site_fract_x
  _atom_site_fract_y
  _atom_site_fract_z
  _atom_site_thermal_displace_type
  _atom_site_B_iso_or_equiv
  _atom_site_type_symbol
  N1       1.0000 0.99965  0.41543  0.59766  Biso   1.000  N
  N2       1.0000 0.99997  0.09067  0.90635  Biso   1.000  N
  C1       1.0000 0.99894  0.28967  0.72282  Biso   1.000  C
  C2       1.0000 0.99910  0.22170  0.78738  Biso   1.000  C
  C3       1.0000 0.07202  0.18464  0.81404  Biso   1.000  C
  H1       1.0000 0.12270  0.20380  0.79200  Biso   1.000  H
  C4       1.0000 0.93540  0.34570  0.71891  Biso   1.000  C
  H2       1.0000 0.89110  0.34180  0.75950  Biso   1.000  H
  C5       1.0000 0.06999  0.11997  0.87270  Biso   1.000  C
  H3       1.0000 0.12000  0.09520  0.89000  Biso   1.000  H
  C6       1.0000 0.06262  0.29879  0.66202  Biso   1.000  C
  H4       1.0000 0.10660  0.26160  0.66200  Biso   1.000  H
  C7       1.0000 0.92679  0.19167  0.82304  Biso   1.000  C
  H5       1.0000 0.87600  0.21560  0.80720  Biso   1.000  H
  C8       1.0000 0.92965  0.12663  0.88184  Biso   1.000  C
  H6       1.0000 0.88000  0.10680  0.90570  Biso   1.000  H
  C9       1.0000 0.93748  0.40681  0.65549  Biso   1.000  C
  H7       1.0000 0.89350  0.44400  0.65270  Biso   1.000  H
  C10      1.0000 0.06131  0.36237  0.60178  Biso   1.000  C
  H8       1.0000 0.10580  0.36870  0.56180  Biso   1.000  H
  N3       1.0000 0.00035  0.91543  0.90234  Biso   1.000  N
  N4       1.0000 0.00003  0.59067  0.59365  Biso   1.000  N
  C11      1.0000 0.00106  0.78967  0.77718  Biso   1.000  C
  C12      1.0000 0.00090  0.72170  0.71262  Biso   1.000  C
  C13      1.0000 0.92798  0.68464  0.68596  Biso   1.000  C
  H9       1.0000 0.87730  0.70380  0.70800  Biso   1.000  H
  C14      1.0000 0.06460  0.84570  0.78109  Biso   1.000  C
  H10      1.0000 0.10890  0.84180  0.74050  Biso   1.000  H
  C15      1.0000 0.93001  0.61997  0.62730  Biso   1.000  C
  H11      1.0000 0.88000  0.59520  0.61000  Biso   1.000  H
  C16      1.0000 0.93738  0.79879  0.83798  Biso   1.000  C
  H12      1.0000 0.89340  0.76160  0.83800  Biso   1.000  H
  C17      1.0000 0.07321  0.69167  0.67696  Biso   1.000  C
  H13      1.0000 0.12400  0.71560  0.69280  Biso   1.000  H
  C18      1.0000 0.07035  0.62663  0.61816  Biso   1.000  C
  H14      1.0000 0.12000  0.60680  0.59430  Biso   1.000  H
  C19      1.0000 0.06252  0.90681  0.84451  Biso   1.000  C
  H15      1.0000 0.10650  0.94400  0.84730  Biso   1.000  H
  C20      1.0000 0.93869  0.86237  0.89822  Biso   1.000  C
  H16      1.0000 0.89420  0.86870  0.93820  Biso   1.000  H
  N5       1.0000 0.00035  0.58457  0.40234  Biso   1.000  N
  N6       1.0000 0.00003  0.90933  0.09365  Biso   1.000  N
  C21      1.0000 0.00106  0.71033  0.27718  Biso   1.000  C
  C22      1.0000 0.00090  0.77830  0.21262  Biso   1.000  C
  C23      1.0000 0.92798  0.81536  0.18596  Biso   1.000  C
  H17      1.0000 0.87730  0.79620  0.20800  Biso   1.000  H
  C24      1.0000 0.06460  0.65430  0.28109  Biso   1.000  C
  H18      1.0000 0.10890  0.65820  0.24050  Biso   1.000  H
  C25      1.0000 0.93001  0.88003  0.12730  Biso   1.000  C
  H19      1.0000 0.88000  0.90480  0.11000  Biso   1.000  H
  C26      1.0000 0.93738  0.70121  0.33798  Biso   1.000  C
  H20      1.0000 0.89340  0.73840  0.33800  Biso   1.000  H
  C27      1.0000 0.07321  0.80833  0.17696  Biso   1.000  C
  H21      1.0000 0.12400  0.78440  0.19280  Biso   1.000  H
  C28      1.0000 0.07035  0.87337  0.11816  Biso   1.000  C
  H22      1.0000 0.12000  0.89320  0.09430  Biso   1.000  H
  C29      1.0000 0.06252  0.59319  0.34451  Biso   1.000  C
  H23      1.0000 0.10650  0.55600  0.34730  Biso   1.000  H
  C30      1.0000 0.93869  0.63763  0.39822  Biso   1.000  C
  H24      1.0000 0.89420  0.63130  0.43820  Biso   1.000  H
  N7       1.0000 0.99965  0.08457  0.09766  Biso   1.000  N
  N8       1.0000 0.99997  0.40933  0.40635  Biso   1.000  N
  C31      1.0000 0.99894  0.21033  0.22282  Biso   1.000  C
  C32      1.0000 0.99910  0.27830  0.28738  Biso   1.000  C
  C33      1.0000 0.07202  0.31536  0.31404  Biso   1.000  C
  H25      1.0000 0.12270  0.29620  0.29200  Biso   1.000  H
  C34      1.0000 0.93540  0.15430  0.21891  Biso   1.000  C
  H26      1.0000 0.89110  0.15820  0.25950  Biso   1.000  H
  C35      1.0000 0.06999  0.38003  0.37270  Biso   1.000  C
  H27      1.0000 0.12000  0.40480  0.39000  Biso   1.000  H
  C36      1.0000 0.06262  0.20121  0.16202  Biso   1.000  C
  H28      1.0000 0.10660  0.23840  0.16200  Biso   1.000  H
  C37      1.0000 0.92679  0.30833  0.32304  Biso   1.000  C
  H29      1.0000 0.87600  0.28440  0.30720  Biso   1.000  H
  C38      1.0000 0.92965  0.37337  0.38184  Biso   1.000  C
  H30      1.0000 0.88000  0.39320  0.40570  Biso   1.000  H
  C39      1.0000 0.93748  0.09319  0.15549  Biso   1.000  C
  H31      1.0000 0.89350  0.05600  0.15270  Biso   1.000  H
  C40      1.0000 0.06131  0.13763  0.10178  Biso   1.000  C
  H32      1.0000 0.10580  0.13130  0.06180  Biso   1.000  H
  Cu1      1.0000 0.00000  0.50000  0.50000  Biso   1.000  Cu
  Cu2      1.0000 0.00000  0.00000  0.00000  Biso   1.000  Cu
  N9       1.0000 0.50157  0.08206  0.10342  Biso   1.000  N
  N10      1.0000 0.50009  0.40834  0.41061  Biso   1.000  N
  C41      1.0000 0.50172  0.27683  0.29304  Biso   1.000  C
  C42      1.0000 0.56598  0.33166  0.29579  Biso   1.000  C
  H33      1.0000 0.61140  0.32500  0.25720  Biso   1.000  H
  C43      1.0000 0.50242  0.20746  0.23027  Biso   1.000  C
  C44      1.0000 0.43162  0.11255  0.13529  Biso   1.000  C
  H34      1.0000 0.38140  0.09070  0.11390  Biso   1.000  H
  C45      1.0000 0.43615  0.29027  0.35038  Biso   1.000  C
  H35      1.0000 0.39110  0.25430  0.35040  Biso   1.000  H
  C46      1.0000 0.56320  0.39594  0.35523  Biso   1.000  C
  H36      1.0000 0.60760  0.43270  0.35690  Biso   1.000  H
  C47      1.0000 0.42956  0.17432  0.19781  Biso   1.000  C
  H37      1.0000 0.37870  0.19410  0.21860  Biso   1.000  H
  C48      1.0000 0.43721  0.35642  0.40738  Biso   1.000  C
  H38      1.0000 0.39190  0.36540  0.44550  Biso   1.000  H
  C49      1.0000 0.57206  0.11186  0.13636  Biso   1.000  C
  H39      1.0000 0.62200  0.08970  0.11580  Biso   1.000  H
  C50      1.0000 0.57484  0.17385  0.19922  Biso   1.000  C
  H40      1.0000 0.62590  0.19330  0.22100  Biso   1.000  H
  N11      1.0000 0.49843  0.58206  0.39658  Biso   1.000  N
  N12      1.0000 0.49991  0.90834  0.08939  Biso   1.000  N
  C51      1.0000 0.49828  0.77683  0.20696  Biso   1.000  C
  C52      1.0000 0.43402  0.83166  0.20421  Biso   1.000  C
  H41      1.0000 0.38860  0.82500  0.24280  Biso   1.000  H
  C53      1.0000 0.49758  0.70746  0.26973  Biso   1.000  C
  C54      1.0000 0.56838  0.61255  0.36471  Biso   1.000  C
  H42      1.0000 0.61860  0.59070  0.38610  Biso   1.000  H
  C55      1.0000 0.56385  0.79027  0.14962  Biso   1.000  C
  H43      1.0000 0.60890  0.75430  0.14960  Biso   1.000  H
  C56      1.0000 0.43680  0.89594  0.14477  Biso   1.000  C
  H44      1.0000 0.39240  0.93270  0.14310  Biso   1.000  H
  C57      1.0000 0.57044  0.67432  0.30219  Biso   1.000  C
  H45      1.0000 0.62130  0.69410  0.28140  Biso   1.000  H
  C58      1.0000 0.56279  0.85642  0.09262  Biso   1.000  C
  H46      1.0000 0.60810  0.86540  0.05450  Biso   1.000  H
  C59      1.0000 0.42794  0.61186  0.36364  Biso   1.000  C
  H47      1.0000 0.37800  0.58970  0.38420  Biso   1.000  H
  C60      1.0000 0.42516  0.67385  0.30078  Biso   1.000  C
  H48      1.0000 0.37410  0.69330  0.27900  Biso   1.000  H
  N13      1.0000 0.49843  0.91794  0.89658  Biso   1.000  N
  N14      1.0000 0.49991  0.59166  0.58939  Biso   1.000  N
  C61      1.0000 0.49828  0.72317  0.70696  Biso   1.000  C
  C62      1.0000 0.43402  0.66834  0.70421  Biso   1.000  C
  H49      1.0000 0.38860  0.67500  0.74280  Biso   1.000  H
  C63      1.0000 0.49758  0.79254  0.76973  Biso   1.000  C
  C64      1.0000 0.56838  0.88745  0.86471  Biso   1.000  C
  H50      1.0000 0.61860  0.90930  0.88610  Biso   1.000  H
  C65      1.0000 0.56385  0.70973  0.64962  Biso   1.000  C
  H51      1.0000 0.60890  0.74570  0.64960  Biso   1.000  H
  C66      1.0000 0.43680  0.60406  0.64477  Biso   1.000  C
  H52      1.0000 0.39240  0.56730  0.64310  Biso   1.000  H
  C67      1.0000 0.57044  0.82568  0.80219  Biso   1.000  C
  H53      1.0000 0.62130  0.80590  0.78140  Biso   1.000  H
  C68      1.0000 0.56279  0.64358  0.59262  Biso   1.000  C
  H54      1.0000 0.60810  0.63460  0.55450  Biso   1.000  H
  C69      1.0000 0.42794  0.88814  0.86364  Biso   1.000  C
  H55      1.0000 0.37800  0.91030  0.88420  Biso   1.000  H
  C70      1.0000 0.42516  0.82615  0.80078  Biso   1.000  C
  H56      1.0000 0.37410  0.80670  0.77900  Biso   1.000  H
  N15      1.0000 0.50157  0.41794  0.60342  Biso   1.000  N
  N16      1.0000 0.50009  0.09166  0.91061  Biso   1.000  N
  C71      1.0000 0.50172  0.22317  0.79304  Biso   1.000  C
  C72      1.0000 0.56598  0.16834  0.79579  Biso   1.000  C
  H57      1.0000 0.61140  0.17500  0.75720  Biso   1.000  H
  C73      1.0000 0.50242  0.29254  0.73027  Biso   1.000  C
  C74      1.0000 0.43162  0.38745  0.63529  Biso   1.000  C
  H58      1.0000 0.38140  0.40930  0.61390  Biso   1.000  H
  C75      1.0000 0.43615  0.20973  0.85038  Biso   1.000  C
  H59      1.0000 0.39110  0.24570  0.85040  Biso   1.000  H
  C76      1.0000 0.56320  0.10406  0.85523  Biso   1.000  C
  H60      1.0000 0.60760  0.06730  0.85690  Biso   1.000  H
  C77      1.0000 0.42956  0.32568  0.69781  Biso   1.000  C
  H61      1.0000 0.37870  0.30590  0.71860  Biso   1.000  H
  C78      1.0000 0.43721  0.14358  0.90738  Biso   1.000  C
  H62      1.0000 0.39190  0.13460  0.94550  Biso   1.000  H
  C79      1.0000 0.57206  0.38814  0.63636  Biso   1.000  C
  H63      1.0000 0.62200  0.41030  0.61580  Biso   1.000  H
  C80      1.0000 0.57484  0.32615  0.69922  Biso   1.000  C
  H64      1.0000 0.62590  0.30670  0.72100  Biso   1.000  H
  Cu3      1.0000 0.50000  0.50000  0.50000  Biso   1.000  Cu
  Cu4      1.0000 0.50000  0.00000  0.00000  Biso   1.000  Cu
