data_image0
_cell_length_a       10.8873
_cell_length_b       11.4736
_cell_length_c       13.4521
_cell_angle_alpha    87.806
_cell_angle_beta     88.438
_cell_angle_gamma    69.247

_symmetry_space_group_name_H-M    "P 1"
_symmetry_int_tables_number       1

loop_
  _symmetry_equiv_pos_as_xyz
  'x, y, z'

loop_
  _atom_site_label
  _atom_site_occupancy
  _atom_site_fract_x
  _atom_site_fract_y
  _atom_site_fract_z
  _atom_site_thermal_displace_type
  _atom_site_B_iso_or_equiv
  _atom_site_type_symbol
  C1       1.0000 0.70739  0.61642  0.06845  Biso   1.000  C
  H1       1.0000 0.75920  0.55280  0.02820  Biso   1.000  H
  C2       1.0000 0.76566  0.68803  0.11402  Biso   1.000  C
  H2       1.0000 0.85510  0.67200  0.10480  Biso   1.000  H
  C3       1.0000 0.69097  0.78450  0.17387  Biso   1.000  C
  C4       1.0000 0.55913  0.80238  0.18463  Biso   1.000  C
  H3       1.0000 0.50520  0.86540  0.22430  Biso   1.000  H
  C5       1.0000 0.50767  0.72651  0.13636  Biso   1.000  C
  H4       1.0000 0.41840  0.74070  0.14410  Biso   1.000  H
  C6       1.0000 0.75650  0.86203  0.22443  Biso   1.000  C
  H5       1.0000 0.79560  0.81850  0.28540  Biso   1.000  H
  H6       1.0000 0.82710  0.86830  0.18150  Biso   1.000  H
  C7       1.0000 0.61362  0.01456  0.33667  Biso   1.000  C
  C8       1.0000 0.53430  0.15399  0.34664  Biso   1.000  C
  C9       1.0000 0.37890  0.30411  0.45589  Biso   1.000  C
  H7       1.0000 0.29350  0.30050  0.47410  Biso   1.000  H
  H8       1.0000 0.36800  0.35870  0.39730  Biso   1.000  H
  C10      1.0000 0.42750  0.35853  0.53972  Biso   1.000  C
  C11      1.0000 0.55910  0.33030  0.55632  Biso   1.000  C
  H9       1.0000 0.62180  0.27410  0.51640  Biso   1.000  H
  C12      1.0000 0.59720  0.38600  0.63254  Biso   1.000  C
  H10      1.0000 0.68660  0.36630  0.64230  Biso   1.000  H
  C13      1.0000 0.38740  0.49280  0.67703  Biso   1.000  C
  H11      1.0000 0.32700  0.54930  0.71820  Biso   1.000  H
  C14      1.0000 0.34000  0.44170  0.60283  Biso   1.000  C
  H12      1.0000 0.25000  0.46290  0.59520  Biso   1.000  H
  N1       1.0000 0.57979  0.63372  0.07909  Biso   1.000  N
  N2       1.0000 0.67090  0.98639  0.24834  Biso   1.000  N
  H13      1.0000 0.65650  0.04470  0.20320  Biso   1.000  H
  N3       1.0000 0.46717  0.18011  0.43155  Biso   1.000  N
  H14      1.0000 0.47640  0.12030  0.47460  Biso   1.000  H
  N4       1.0000 0.51320  0.46647  0.69309  Biso   1.000  N
  O1       1.0000 0.61981  0.93940  0.40575  Biso   1.000  O
  O2       1.0000 0.53583  0.22861  0.28007  Biso   1.000  O
  C15      1.0000 0.29261  0.38358  0.93155  Biso   1.000  C
  H15      1.0000 0.24080  0.44720  0.97180  Biso   1.000  H
  C16      1.0000 0.23434  0.31197  0.88598  Biso   1.000  C
  H16      1.0000 0.14490  0.32800  0.89520  Biso   1.000  H
  C17      1.0000 0.30903  0.21550  0.82613  Biso   1.000  C
  C18      1.0000 0.44087  0.19762  0.81537  Biso   1.000  C
  H17      1.0000 0.49480  0.13460  0.77570  Biso   1.000  H
  C19      1.0000 0.49233  0.27349  0.86364  Biso   1.000  C
  H18      1.0000 0.58160  0.25930  0.85590  Biso   1.000  H
  C20      1.0000 0.24350  0.13797  0.77557  Biso   1.000  C
  H19      1.0000 0.20440  0.18150  0.71460  Biso   1.000  H
  H20      1.0000 0.17290  0.13170  0.81850  Biso   1.000  H
  C21      1.0000 0.38638  0.98544  0.66333  Biso   1.000  C
  C22      1.0000 0.46570  0.84601  0.65336  Biso   1.000  C
  C23      1.0000 0.62110  0.69589  0.54411  Biso   1.000  C
  H21      1.0000 0.70650  0.69950  0.52590  Biso   1.000  H
  H22      1.0000 0.63200  0.64130  0.60270  Biso   1.000  H
  C24      1.0000 0.57250  0.64147  0.46028  Biso   1.000  C
  C25      1.0000 0.44090  0.66970  0.44368  Biso   1.000  C
  H23      1.0000 0.37820  0.72590  0.48360  Biso   1.000  H
  C26      1.0000 0.40280  0.61400  0.36746  Biso   1.000  C
  H24      1.0000 0.31340  0.63370  0.35770  Biso   1.000  H
  C27      1.0000 0.61260  0.50720  0.32297  Biso   1.000  C
  H25      1.0000 0.67300  0.45070  0.28180  Biso   1.000  H
  C28      1.0000 0.66000  0.55830  0.39717  Biso   1.000  C
  H26      1.0000 0.75000  0.53710  0.40480  Biso   1.000  H
  N5       1.0000 0.42021  0.36628  0.92091  Biso   1.000  N
  N6       1.0000 0.32910  0.01361  0.75166  Biso   1.000  N
  H27      1.0000 0.34350  0.95530  0.79680  Biso   1.000  H
  N7       1.0000 0.53283  0.81989  0.56845  Biso   1.000  N
  H28      1.0000 0.52360  0.87970  0.52540  Biso   1.000  H
  N8       1.0000 0.48680  0.53353  0.30691  Biso   1.000  N
  O3       1.0000 0.38019  0.06060  0.59425  Biso   1.000  O
  O4       1.0000 0.46417  0.77139  0.71993  Biso   1.000  O
  Cd1      1.0000 0.50000  0.50000  0.00000  Biso   1.000  Cd
