data_image0
_cell_length_a       12.6372
_cell_length_b       12.985
_cell_length_c       14.7076
_cell_angle_alpha    77.68
_cell_angle_beta     68.355
_cell_angle_gamma    87.319

_symmetry_space_group_name_H-M    "P 1"
_symmetry_int_tables_number       1

loop_
  _symmetry_equiv_pos_as_xyz
  'x, y, z'

loop_
  _atom_site_label
  _atom_site_occupancy
  _atom_site_fract_x
  _atom_site_fract_y
  _atom_site_fract_z
  _atom_site_thermal_displace_type
  _atom_site_B_iso_or_equiv
  _atom_site_type_symbol
  Ag1      1.0000 0.70364  0.36935  0.70554  Biso   1.000  Ag
  Ag2      1.0000 0.66611  0.15202  0.34833  Biso   1.000  Ag
  C1       1.0000 0.84480  0.27560  0.84750  Biso   1.000  C
  H1       1.0000 0.88390  0.24490  0.79150  Biso   1.000  H
  C2       1.0000 0.86360  0.23920  0.93520  Biso   1.000  C
  C3       1.0000 0.80670  0.28030  0.01860  Biso   1.000  C
  H2       1.0000 0.81860  0.25510  0.07950  Biso   1.000  H
  C4       1.0000 0.73170  0.35960  0.01030  Biso   1.000  C
  H3       1.0000 0.69060  0.39040  0.06580  Biso   1.000  H
  C5       1.0000 0.71760  0.39320  0.92000  Biso   1.000  C
  H4       1.0000 0.66590  0.44770  0.91480  Biso   1.000  H
  C6       1.0000 0.22700  0.97940  0.81570  Biso   1.000  C
  H5       1.0000 0.17050  0.98360  0.78690  Biso   1.000  H
  C7       1.0000 0.20850  0.02510  0.89630  Biso   1.000  C
  C8       1.0000 0.28730  0.01960  0.94100  Biso   1.000  C
  H6       1.0000 0.27400  0.04890  0.99810  Biso   1.000  H
  C9       1.0000 0.38720  0.96940  0.89920  Biso   1.000  C
  H7       1.0000 0.44520  0.96550  0.92620  Biso   1.000  H
  C10      1.0000 0.40230  0.92530  0.81840  Biso   1.000  C
  H8       1.0000 0.47120  0.89090  0.79090  Biso   1.000  H
  C11      1.0000 0.16680  0.63080  0.77950  Biso   1.000  C
  H9       1.0000 0.23750  0.59810  0.77210  Biso   1.000  H
  C12      1.0000 0.06660  0.57280  0.83800  Biso   1.000  C
  C13      1.0000 0.96300  0.61770  0.84850  Biso   1.000  C
  H10      1.0000 0.89360  0.57890  0.88830  Biso   1.000  H
  C14      1.0000 0.96350  0.72100  0.79910  Biso   1.000  C
  H11      1.0000 0.89390  0.75450  0.80350  Biso   1.000  H
  C15      1.0000 0.06630  0.77490  0.74340  Biso   1.000  C
  H12      1.0000 0.06560  0.84630  0.71070  Biso   1.000  H
  C16      1.0000 0.17430  0.48770  0.50170  Biso   1.000  C
  H13      1.0000 0.22910  0.43940  0.47360  Biso   1.000  H
  C17      1.0000 0.09100  0.45430  0.59410  Biso   1.000  C
  C18      1.0000 0.00830  0.52140  0.63530  Biso   1.000  C
  H14      1.0000 0.94860  0.49800  0.69820  Biso   1.000  H
  C19      1.0000 0.01480  0.62360  0.58260  Biso   1.000  C
  H15      1.0000 0.95980  0.67250  0.60890  Biso   1.000  H
  C20      1.0000 0.10200  0.65430  0.49090  Biso   1.000  C
  H16      1.0000 0.10700  0.72550  0.45570  Biso   1.000  H
  C21      1.0000 0.52110  0.24550  0.90260  Biso   1.000  C
  H17      1.0000 0.58480  0.20400  0.90350  Biso   1.000  H
  C22      1.0000 0.42130  0.22580  0.98500  Biso   1.000  C
  H18      1.0000 0.41720  0.17280  0.04200  Biso   1.000  H
  C23      1.0000 0.32760  0.28380  0.98410  Biso   1.000  C
  H19      1.0000 0.25750  0.27170  0.03980  Biso   1.000  H
  C24      1.0000 0.33890  0.35980  0.89980  Biso   1.000  C
  C25      1.0000 0.44100  0.37730  0.81990  Biso   1.000  C
  H20      1.0000 0.44700  0.43060  0.76270  Biso   1.000  H
  C26      1.0000 0.57780  0.14580  0.57600  Biso   1.000  C
  H21      1.0000 0.64960  0.11470  0.56670  Biso   1.000  H
  C27      1.0000 0.51200  0.16230  0.66930  Biso   1.000  C
  H22      1.0000 0.53830  0.14260  0.72320  Biso   1.000  H
  C28      1.0000 0.40690  0.20780  0.68440  Biso   1.000  C
  H23      1.0000 0.35980  0.22040  0.74810  Biso   1.000  H
  C29      1.0000 0.37380  0.23400  0.60330  Biso   1.000  C
  C30      1.0000 0.44380  0.21490  0.51170  Biso   1.000  C
  H24      1.0000 0.41910  0.23300  0.45680  Biso   1.000  H
  N1       1.0000 0.10260  0.27360  0.93085  Biso   1.000  N
  N2       1.0000 0.20560  0.38970  0.74410  Biso   1.000  N
  N3       1.0000 0.11350  0.19580  0.77210  Biso   1.000  N
  N4       1.0000 0.77350  0.35260  0.83900  Biso   1.000  N
  N5       1.0000 0.32290  0.92910  0.77700  Biso   1.000  N
  N6       1.0000 0.54500  0.17180  0.49760  Biso   1.000  N
  N7       1.0000 0.17990  0.58730  0.45000  Biso   1.000  N
  N8       1.0000 0.16690  0.73100  0.73330  Biso   1.000  N
  N9       1.0000 0.53210  0.32080  0.82100  Biso   1.000  N
  O1       1.0000 0.24810  0.42395  0.89527  Biso   1.000  O
  O2       1.0000 0.06235  0.46913  0.89021  Biso   1.000  O
  O3       1.0000 0.10442  0.07092  0.93818  Biso   1.000  O
  O4       1.0000 0.93661  0.15625  0.94144  Biso   1.000  O
  O5       1.0000 0.27246  0.28164  0.60444  Biso   1.000  O
  O6       1.0000 0.08385  0.34899  0.64455  Biso   1.000  O
  P1       1.0000 0.15470  0.38271  0.86127  Biso   1.000  P
  P2       1.0000 0.16905  0.30287  0.69935  Biso   1.000  P
  P3       1.0000 0.06979  0.18092  0.88994  Biso   1.000  P
  Ag3      1.0000 0.29636  0.63065  0.29446  Biso   1.000  Ag
  Ag4      1.0000 0.33389  0.84798  0.65167  Biso   1.000  Ag
  C31      1.0000 0.15520  0.72440  0.15250  Biso   1.000  C
  H25      1.0000 0.11610  0.75510  0.20850  Biso   1.000  H
  C32      1.0000 0.13640  0.76080  0.06480  Biso   1.000  C
  C33      1.0000 0.19330  0.71970  0.98140  Biso   1.000  C
  H26      1.0000 0.18140  0.74490  0.92050  Biso   1.000  H
  C34      1.0000 0.26830  0.64040  0.98970  Biso   1.000  C
  H27      1.0000 0.30940  0.60960  0.93420  Biso   1.000  H
  C35      1.0000 0.28240  0.60680  0.08000  Biso   1.000  C
  H28      1.0000 0.33410  0.55230  0.08520  Biso   1.000  H
  C36      1.0000 0.77300  0.02060  0.18430  Biso   1.000  C
  H29      1.0000 0.82950  0.01640  0.21310  Biso   1.000  H
  C37      1.0000 0.79150  0.97490  0.10370  Biso   1.000  C
  C38      1.0000 0.71270  0.98040  0.05900  Biso   1.000  C
  H30      1.0000 0.72600  0.95110  0.00190  Biso   1.000  H
  C39      1.0000 0.61280  0.03060  0.10080  Biso   1.000  C
  H31      1.0000 0.55480  0.03450  0.07380  Biso   1.000  H
  C40      1.0000 0.59770  0.07470  0.18160  Biso   1.000  C
  H32      1.0000 0.52880  0.10910  0.20910  Biso   1.000  H
  C41      1.0000 0.83320  0.36920  0.22050  Biso   1.000  C
  H33      1.0000 0.76250  0.40190  0.22790  Biso   1.000  H
  C42      1.0000 0.93340  0.42720  0.16200  Biso   1.000  C
  C43      1.0000 0.03700  0.38230  0.15150  Biso   1.000  C
  H34      1.0000 0.10640  0.42110  0.11170  Biso   1.000  H
  C44      1.0000 0.03650  0.27900  0.20090  Biso   1.000  C
  H35      1.0000 0.10610  0.24550  0.19650  Biso   1.000  H
  C45      1.0000 0.93370  0.22510  0.25660  Biso   1.000  C
  H36      1.0000 0.93440  0.15370  0.28930  Biso   1.000  H
  C46      1.0000 0.82570  0.51230  0.49830  Biso   1.000  C
  H37      1.0000 0.77090  0.56060  0.52640  Biso   1.000  H
  C47      1.0000 0.90900  0.54570  0.40590  Biso   1.000  C
  C48      1.0000 0.99170  0.47860  0.36470  Biso   1.000  C
  H38      1.0000 0.05140  0.50200  0.30180  Biso   1.000  H
  C49      1.0000 0.98520  0.37640  0.41740  Biso   1.000  C
  H39      1.0000 0.04020  0.32750  0.39110  Biso   1.000  H
  C50      1.0000 0.89800  0.34570  0.50910  Biso   1.000  C
  H40      1.0000 0.89300  0.27450  0.54430  Biso   1.000  H
  C51      1.0000 0.47890  0.75450  0.09740  Biso   1.000  C
  H41      1.0000 0.41520  0.79600  0.09650  Biso   1.000  H
  C52      1.0000 0.57870  0.77420  0.01500  Biso   1.000  C
  H42      1.0000 0.58280  0.82720  0.95800  Biso   1.000  H
  C53      1.0000 0.67240  0.71620  0.01590  Biso   1.000  C
  H43      1.0000 0.74250  0.72830  0.96020  Biso   1.000  H
  C54      1.0000 0.66110  0.64020  0.10020  Biso   1.000  C
  C55      1.0000 0.55900  0.62270  0.18010  Biso   1.000  C
  H44      1.0000 0.55300  0.56940  0.23730  Biso   1.000  H
  C56      1.0000 0.42220  0.85420  0.42400  Biso   1.000  C
  H45      1.0000 0.35040  0.88530  0.43330  Biso   1.000  H
  C57      1.0000 0.48800  0.83770  0.33070  Biso   1.000  C
  H46      1.0000 0.46170  0.85740  0.27680  Biso   1.000  H
  C58      1.0000 0.59310  0.79220  0.31560  Biso   1.000  C
  H47      1.0000 0.64020  0.77960  0.25190  Biso   1.000  H
  C59      1.0000 0.62620  0.76600  0.39670  Biso   1.000  C
  C60      1.0000 0.55620  0.78510  0.48830  Biso   1.000  C
  H48      1.0000 0.58090  0.76700  0.54320  Biso   1.000  H
  N10      1.0000 0.89740  0.72640  0.06915  Biso   1.000  N
  N11      1.0000 0.79440  0.61030  0.25590  Biso   1.000  N
  N12      1.0000 0.88650  0.80420  0.22790  Biso   1.000  N
  N13      1.0000 0.22650  0.64740  0.16100  Biso   1.000  N
  N14      1.0000 0.67710  0.07090  0.22300  Biso   1.000  N
  N15      1.0000 0.45500  0.82820  0.50240  Biso   1.000  N
  N16      1.0000 0.82010  0.41270  0.55000  Biso   1.000  N
  N17      1.0000 0.83310  0.26900  0.26670  Biso   1.000  N
  N18      1.0000 0.46790  0.67920  0.17900  Biso   1.000  N
  O7       1.0000 0.75190  0.57605  0.10473  Biso   1.000  O
  O8       1.0000 0.93765  0.53087  0.10979  Biso   1.000  O
  O9       1.0000 0.89558  0.92908  0.06182  Biso   1.000  O
  O10      1.0000 0.06339  0.84375  0.05856  Biso   1.000  O
  O11      1.0000 0.72754  0.71836  0.39556  Biso   1.000  O
  O12      1.0000 0.91615  0.65101  0.35545  Biso   1.000  O
  P4       1.0000 0.84530  0.61729  0.13873  Biso   1.000  P
  P5       1.0000 0.83095  0.69713  0.30065  Biso   1.000  P
  P6       1.0000 0.93021  0.81908  0.11006  Biso   1.000  P
