data_image0
_cell_length_a       11.144
_cell_length_b       11.599
_cell_length_c       13.529
_cell_angle_alpha    104.05
_cell_angle_beta     97.18
_cell_angle_gamma    108.05

_symmetry_space_group_name_H-M    "P 1"
_symmetry_int_tables_number       1

loop_
  _symmetry_equiv_pos_as_xyz
  'x, y, z'

loop_
  _atom_site_label
  _atom_site_occupancy
  _atom_site_fract_x
  _atom_site_fract_y
  _atom_site_fract_z
  _atom_site_thermal_displace_type
  _atom_site_B_iso_or_equiv
  _atom_site_type_symbol
  Cd1      1.0000 0.67001  0.40072  0.07387  Biso   1.000  Cd
  O1       1.0000 0.05310  0.67010  0.69750  Biso   1.000  O
  O2       1.0000 0.06280  0.86110  0.69100  Biso   1.000  O
  O3       1.0000 0.78460  0.47300  0.93330  Biso   1.000  O
  O4       1.0000 0.71890  0.59780  0.04650  Biso   1.000  O
  N1       1.0000 0.72810  0.22530  0.01370  Biso   1.000  N
  C1       1.0000 0.02530  0.76900  0.72480  Biso   1.000  C
  C2       1.0000 0.77300  0.57780  0.96990  Biso   1.000  C
  C3       1.0000 0.93850  0.77390  0.80450  Biso   1.000  C
  C4       1.0000 0.89490  0.67430  0.84580  Biso   1.000  C
  H1       1.0000 0.91510  0.59980  0.82280  Biso   1.000  H
  C5       1.0000 0.82040  0.68400  0.92220  Biso   1.000  C
  C6       1.0000 0.79060  0.79350  0.95240  Biso   1.000  C
  H2       1.0000 0.73970  0.79990  0.00340  Biso   1.000  H
  C7       1.0000 0.83180  0.89330  0.91130  Biso   1.000  C
  C8       1.0000 0.90600  0.88190  0.83630  Biso   1.000  C
  H3       1.0000 0.93500  0.94890  0.80630  Biso   1.000  H
  C9       1.0000 0.79560  0.00780  0.94590  Biso   1.000  C
  C10      1.0000 0.69390  0.00630  0.99410  Biso   1.000  C
  H4       1.0000 0.64390  0.92960  0.00510  Biso   1.000  H
  C11      1.0000 0.66290  0.11310  0.02660  Biso   1.000  C
  H5       1.0000 0.59190  0.10740  0.05970  Biso   1.000  H
  C12      1.0000 0.82340  0.22810  0.96650  Biso   1.000  C
  H6       1.0000 0.87040  0.30600  0.95570  Biso   1.000  H
  C13      1.0000 0.86120  0.12240  0.93050  Biso   1.000  C
  H7       1.0000 0.93110  0.13010  0.89590  Biso   1.000  H
  Cd2      1.0000 0.17676  0.74890  0.57963  Biso   1.000  Cd
  O5       1.0000 0.21720  0.56310  0.54680  Biso   1.000  O
  O6       1.0000 0.30520  0.67220  0.44580  Biso   1.000  O
  O7       1.0000 0.53950  0.47990  0.18640  Biso   1.000  O
  O8       1.0000 0.55000  0.29210  0.18340  Biso   1.000  O
  N2       1.0000 0.22870  0.92480  0.51660  Biso   1.000  N
  C14      1.0000 0.28310  0.57270  0.47470  Biso   1.000  C
  C15      1.0000 0.51160  0.38190  0.22040  Biso   1.000  C
  C16      1.0000 0.32980  0.47170  0.42720  Biso   1.000  C
  C17      1.0000 0.39600  0.47740  0.34870  Biso   1.000  C
  H8       1.0000 0.41440  0.55010  0.32470  Biso   1.000  H
  C18      1.0000 0.43700  0.37880  0.30330  Biso   1.000  C
  C19      1.0000 0.39770  0.26870  0.33270  Biso   1.000  C
  H9       1.0000 0.41900  0.19850  0.29790  Biso   1.000  H
  C20      1.0000 0.32930  0.25630  0.40980  Biso   1.000  C
  C21      1.0000 0.29260  0.35770  0.45710  Biso   1.000  C
  H10      1.0000 0.24310  0.35080  0.50900  Biso   1.000  H
  C22      1.0000 0.29280  0.14090  0.44650  Biso   1.000  C
  C23      1.0000 0.36060  0.05910  0.43200  Biso   1.000  C
  H11      1.0000 0.43130  0.07560  0.39830  Biso   1.000  H
  C24      1.0000 0.32530  0.95230  0.46660  Biso   1.000  C
  H12      1.0000 0.37210  0.89620  0.45420  Biso   1.000  H
  C25      1.0000 0.16030  0.99990  0.52720  Biso   1.000  C
  H13      1.0000 0.08850  0.97980  0.55920  Biso   1.000  H
  C26      1.0000 0.18940  0.10710  0.49330  Biso   1.000  C
  H14      1.0000 0.13710  0.15820  0.50250  Biso   1.000  H
  Cd3      1.0000 0.32999  0.59928  0.92613  Biso   1.000  Cd
  O9       1.0000 0.94690  0.32990  0.30250  Biso   1.000  O
  O10      1.0000 0.93720  0.13890  0.30900  Biso   1.000  O
  O11      1.0000 0.21540  0.52700  0.06670  Biso   1.000  O
  O12      1.0000 0.28110  0.40220  0.95350  Biso   1.000  O
  N3       1.0000 0.27190  0.77470  0.98630  Biso   1.000  N
  C27      1.0000 0.97470  0.23100  0.27520  Biso   1.000  C
  C28      1.0000 0.22700  0.42220  0.03010  Biso   1.000  C
  C29      1.0000 0.06150  0.22610  0.19550  Biso   1.000  C
  C30      1.0000 0.10510  0.32570  0.15420  Biso   1.000  C
  H15      1.0000 0.08490  0.40020  0.17720  Biso   1.000  H
  C31      1.0000 0.17960  0.31600  0.07780  Biso   1.000  C
  C32      1.0000 0.20940  0.20650  0.04760  Biso   1.000  C
  H16      1.0000 0.26030  0.20010  0.99660  Biso   1.000  H
  C33      1.0000 0.16820  0.10670  0.08870  Biso   1.000  C
  C34      1.0000 0.09400  0.11810  0.16370  Biso   1.000  C
  H17      1.0000 0.06500  0.05110  0.19370  Biso   1.000  H
  C35      1.0000 0.20440  0.99220  0.05410  Biso   1.000  C
  C36      1.0000 0.30610  0.99370  0.00590  Biso   1.000  C
  H18      1.0000 0.35610  0.07040  0.99490  Biso   1.000  H
  C37      1.0000 0.33710  0.88690  0.97340  Biso   1.000  C
  H19      1.0000 0.40810  0.89260  0.94030  Biso   1.000  H
  C38      1.0000 0.17660  0.77190  0.03350  Biso   1.000  C
  H20      1.0000 0.12960  0.69400  0.04430  Biso   1.000  H
  C39      1.0000 0.13880  0.87760  0.06950  Biso   1.000  C
  H21      1.0000 0.06890  0.86990  0.10410  Biso   1.000  H
  Cd4      1.0000 0.82324  0.25110  0.42037  Biso   1.000  Cd
  O13      1.0000 0.78280  0.43690  0.45320  Biso   1.000  O
  O14      1.0000 0.69480  0.32780  0.55420  Biso   1.000  O
  O15      1.0000 0.46050  0.52010  0.81360  Biso   1.000  O
  O16      1.0000 0.45000  0.70790  0.81660  Biso   1.000  O
  N4       1.0000 0.77130  0.07520  0.48340  Biso   1.000  N
  C40      1.0000 0.71690  0.42730  0.52530  Biso   1.000  C
  C41      1.0000 0.48840  0.61810  0.77960  Biso   1.000  C
  C42      1.0000 0.67020  0.52830  0.57280  Biso   1.000  C
  C43      1.0000 0.60400  0.52260  0.65130  Biso   1.000  C
  H22      1.0000 0.58560  0.44990  0.67530  Biso   1.000  H
  C44      1.0000 0.56300  0.62120  0.69670  Biso   1.000  C
  C45      1.0000 0.60230  0.73130  0.66730  Biso   1.000  C
  H23      1.0000 0.58100  0.80150  0.70210  Biso   1.000  H
  C46      1.0000 0.67070  0.74370  0.59020  Biso   1.000  C
  C47      1.0000 0.70740  0.64230  0.54290  Biso   1.000  C
  H24      1.0000 0.75690  0.64920  0.49100  Biso   1.000  H
  C48      1.0000 0.70720  0.85910  0.55350  Biso   1.000  C
  C49      1.0000 0.63940  0.94090  0.56800  Biso   1.000  C
  H25      1.0000 0.56870  0.92440  0.60170  Biso   1.000  H
  C50      1.0000 0.67470  0.04770  0.53340  Biso   1.000  C
  H26      1.0000 0.62790  0.10380  0.54580  Biso   1.000  H
  C51      1.0000 0.83970  0.00010  0.47280  Biso   1.000  C
  H27      1.0000 0.91150  0.02020  0.44080  Biso   1.000  H
  C52      1.0000 0.81060  0.89290  0.50670  Biso   1.000  C
  H28      1.0000 0.86290  0.84180  0.49750  Biso   1.000  H
