data_image0
_cell_length_a       9.8438
_cell_length_b       9.1897
_cell_length_c       22.8948
_cell_angle_alpha    90
_cell_angle_beta     90
_cell_angle_gamma    90

_symmetry_space_group_name_H-M    "P 1"
_symmetry_int_tables_number       1

loop_
  _symmetry_equiv_pos_as_xyz
  'x, y, z'

loop_
  _atom_site_label
  _atom_site_occupancy
  _atom_site_fract_x
  _atom_site_fract_y
  _atom_site_fract_z
  _atom_site_thermal_displace_type
  _atom_site_B_iso_or_equiv
  _atom_site_type_symbol
  N1       1.0000 0.84250  0.46500  0.71416  Biso   1.000  N
  H1       1.0000 0.80430  0.53870  0.69780  Biso   1.000  H
  H2       1.0000 0.92430  0.44160  0.70500  Biso   1.000  H
  N2       1.0000 0.82890  0.26990  0.78205  Biso   1.000  N
  C1       1.0000 0.73910  0.11350  0.86260  Biso   1.000  C
  N3       1.0000 0.14540  0.91600  0.72898  Biso   1.000  N
  C2       1.0000 0.77320  0.38520  0.75474  Biso   1.000  C
  C3       1.0000 0.72810  0.22490  0.81951  Biso   1.000  C
  C4       1.0000 0.11660  0.81260  0.68760  Biso   1.000  C
  N4       1.0000 0.89820  0.77290  0.62910  Biso   1.000  N
  N5       1.0000 0.74180  0.03150  0.90000  Biso   1.000  N
  C5       1.0000 0.99210  0.79620  0.65650  Biso   1.000  C
  N6       1.0000 0.15750  0.46500  0.78584  Biso   1.000  N
  H3       1.0000 0.19570  0.53870  0.80220  Biso   1.000  H
  H4       1.0000 0.07570  0.44160  0.79500  Biso   1.000  H
  N7       1.0000 0.17110  0.26990  0.71795  Biso   1.000  N
  C6       1.0000 0.26090  0.11350  0.63740  Biso   1.000  C
  N8       1.0000 0.85460  0.91600  0.77102  Biso   1.000  N
  C7       1.0000 0.22680  0.38520  0.74526  Biso   1.000  C
  C8       1.0000 0.27190  0.22490  0.68049  Biso   1.000  C
  C9       1.0000 0.88340  0.81260  0.81240  Biso   1.000  C
  N9       1.0000 0.10180  0.77290  0.87090  Biso   1.000  N
  N10      1.0000 0.25820  0.03150  0.60000  Biso   1.000  N
  C10      1.0000 0.00790  0.79620  0.84350  Biso   1.000  C
  N11      1.0000 0.34250  0.96500  0.78584  Biso   1.000  N
  H5       1.0000 0.30430  0.03870  0.80220  Biso   1.000  H
  H6       1.0000 0.42430  0.94160  0.79500  Biso   1.000  H
  N12      1.0000 0.32890  0.76990  0.71795  Biso   1.000  N
  C11      1.0000 0.23910  0.61350  0.63740  Biso   1.000  C
  N13      1.0000 0.64540  0.41600  0.77102  Biso   1.000  N
  C12      1.0000 0.27320  0.88520  0.74526  Biso   1.000  C
  C13      1.0000 0.22810  0.72490  0.68049  Biso   1.000  C
  C14      1.0000 0.61660  0.31260  0.81240  Biso   1.000  C
  N14      1.0000 0.39820  0.27290  0.87090  Biso   1.000  N
  N15      1.0000 0.24180  0.53150  0.60000  Biso   1.000  N
  C15      1.0000 0.49210  0.29620  0.84350  Biso   1.000  C
  N16      1.0000 0.65750  0.96500  0.71416  Biso   1.000  N
  H7       1.0000 0.69570  0.03870  0.69780  Biso   1.000  H
  H8       1.0000 0.57570  0.94160  0.70500  Biso   1.000  H
  N17      1.0000 0.67110  0.76990  0.78205  Biso   1.000  N
  C16      1.0000 0.76090  0.61350  0.86260  Biso   1.000  C
  N18      1.0000 0.35460  0.41600  0.72898  Biso   1.000  N
  C17      1.0000 0.72680  0.88520  0.75474  Biso   1.000  C
  C18      1.0000 0.77190  0.72490  0.81951  Biso   1.000  C
  C19      1.0000 0.38340  0.31260  0.68760  Biso   1.000  C
  N19      1.0000 0.60180  0.27290  0.62910  Biso   1.000  N
  N20      1.0000 0.75820  0.53150  0.90000  Biso   1.000  N
  C20      1.0000 0.50790  0.29620  0.65650  Biso   1.000  C
  Cd1      1.0000 0.00000  0.11224  0.75000  Biso   1.000  Cd
  Cd2      1.0000 0.50000  0.61224  0.75000  Biso   1.000  Cd
  N21      1.0000 0.65750  0.03500  0.21416  Biso   1.000  N
  H9       1.0000 0.69570  0.96130  0.19780  Biso   1.000  H
  H10      1.0000 0.57570  0.05840  0.20500  Biso   1.000  H
  N22      1.0000 0.67110  0.23010  0.28205  Biso   1.000  N
  C21      1.0000 0.76090  0.38650  0.36260  Biso   1.000  C
  N23      1.0000 0.35460  0.58400  0.22898  Biso   1.000  N
  C22      1.0000 0.72680  0.11480  0.25474  Biso   1.000  C
  C23      1.0000 0.77190  0.27510  0.31951  Biso   1.000  C
  C24      1.0000 0.38340  0.68740  0.18760  Biso   1.000  C
  N24      1.0000 0.60180  0.72710  0.12910  Biso   1.000  N
  N25      1.0000 0.75820  0.46850  0.40000  Biso   1.000  N
  C25      1.0000 0.50790  0.70380  0.15650  Biso   1.000  C
  N26      1.0000 0.34250  0.03500  0.28584  Biso   1.000  N
  H11      1.0000 0.30430  0.96130  0.30220  Biso   1.000  H
  H12      1.0000 0.42430  0.05840  0.29500  Biso   1.000  H
  N27      1.0000 0.32890  0.23010  0.21795  Biso   1.000  N
  C26      1.0000 0.23910  0.38650  0.13740  Biso   1.000  C
  N28      1.0000 0.64540  0.58400  0.27102  Biso   1.000  N
  C27      1.0000 0.27320  0.11480  0.24526  Biso   1.000  C
  C28      1.0000 0.22810  0.27510  0.18049  Biso   1.000  C
  C29      1.0000 0.61660  0.68740  0.31240  Biso   1.000  C
  N29      1.0000 0.39820  0.72710  0.37090  Biso   1.000  N
  N30      1.0000 0.24180  0.46850  0.10000  Biso   1.000  N
  C30      1.0000 0.49210  0.70380  0.34350  Biso   1.000  C
  N31      1.0000 0.15750  0.53500  0.28584  Biso   1.000  N
  H13      1.0000 0.19570  0.46130  0.30220  Biso   1.000  H
  H14      1.0000 0.07570  0.55840  0.29500  Biso   1.000  H
  N32      1.0000 0.17110  0.73010  0.21795  Biso   1.000  N
  C31      1.0000 0.26090  0.88650  0.13740  Biso   1.000  C
  N33      1.0000 0.85460  0.08400  0.27102  Biso   1.000  N
  C32      1.0000 0.22680  0.61480  0.24526  Biso   1.000  C
  C33      1.0000 0.27190  0.77510  0.18049  Biso   1.000  C
  C34      1.0000 0.88340  0.18740  0.31240  Biso   1.000  C
  N34      1.0000 0.10180  0.22710  0.37090  Biso   1.000  N
  N35      1.0000 0.25820  0.96850  0.10000  Biso   1.000  N
  C35      1.0000 0.00790  0.20380  0.34350  Biso   1.000  C
  N36      1.0000 0.84250  0.53500  0.21416  Biso   1.000  N
  H15      1.0000 0.80430  0.46130  0.19780  Biso   1.000  H
  H16      1.0000 0.92430  0.55840  0.20500  Biso   1.000  H
  N37      1.0000 0.82890  0.73010  0.28205  Biso   1.000  N
  C36      1.0000 0.73910  0.88650  0.36260  Biso   1.000  C
  N38      1.0000 0.14540  0.08400  0.22898  Biso   1.000  N
  C37      1.0000 0.77320  0.61480  0.25474  Biso   1.000  C
  C38      1.0000 0.72810  0.77510  0.31951  Biso   1.000  C
  C39      1.0000 0.11660  0.18740  0.18760  Biso   1.000  C
  N39      1.0000 0.89820  0.22710  0.12910  Biso   1.000  N
  N40      1.0000 0.74180  0.96850  0.40000  Biso   1.000  N
  C40      1.0000 0.99210  0.20380  0.15650  Biso   1.000  C
  Cd3      1.0000 0.50000  0.38776  0.25000  Biso   1.000  Cd
  Cd4      1.0000 0.00000  0.88776  0.25000  Biso   1.000  Cd
