data_image0
_cell_length_a       9.887
_cell_length_b       9.887
_cell_length_c       37.03
_cell_angle_alpha    90
_cell_angle_beta     90
_cell_angle_gamma    120

_symmetry_space_group_name_H-M    "P 1"
_symmetry_int_tables_number       1

loop_
  _symmetry_equiv_pos_as_xyz
  'x, y, z'

loop_
  _atom_site_label
  _atom_site_occupancy
  _atom_site_fract_x
  _atom_site_fract_y
  _atom_site_fract_z
  _atom_site_thermal_displace_type
  _atom_site_B_iso_or_equiv
  _atom_site_type_symbol
  O1       1.0000 0.64210  0.10360  0.41951  Biso   1.000  O
  C1       1.0000 0.53930  0.98250  0.40668  Biso   1.000  C
  O2       1.0000 0.49800  0.65020  0.36007  Biso   1.000  O
  O3       1.0000 0.62240  0.51320  0.35777  Biso   1.000  O
  O4       1.0000 0.49030  0.84450  0.41939  Biso   1.000  O
  C2       1.0000 0.53010  0.54670  0.37131  Biso   1.000  C
  O5       1.0000 0.89640  0.53850  0.41951  Biso   1.000  O
  C3       1.0000 0.01750  0.55680  0.40668  Biso   1.000  C
  O6       1.0000 0.34980  0.84780  0.36007  Biso   1.000  O
  O7       1.0000 0.48680  0.10920  0.35777  Biso   1.000  O
  O8       1.0000 0.15550  0.64580  0.41939  Biso   1.000  O
  C4       1.0000 0.45330  0.98340  0.37131  Biso   1.000  C
  O9       1.0000 0.46150  0.35790  0.41951  Biso   1.000  O
  C5       1.0000 0.44320  0.46070  0.40668  Biso   1.000  C
  O10      1.0000 0.15220  0.50200  0.36007  Biso   1.000  O
  O11      1.0000 0.89080  0.37760  0.35777  Biso   1.000  O
  O12      1.0000 0.35420  0.50970  0.41939  Biso   1.000  O
  C6       1.0000 0.01660  0.46990  0.37131  Biso   1.000  C
  Fe1      1.0000 0.33333  0.66667  0.38855  Biso   1.000  Fe
  Na1      1.0000 0.66667  0.33333  0.39180  Biso   1.000  Na
  O13      1.0000 0.30877  0.43693  0.75284  Biso   1.000  O
  C7       1.0000 0.20597  0.31583  0.74001  Biso   1.000  C
  O14      1.0000 0.16467  0.98353  0.69340  Biso   1.000  O
  O15      1.0000 0.28907  0.84653  0.69110  Biso   1.000  O
  O16      1.0000 0.15697  0.17783  0.75272  Biso   1.000  O
  C8       1.0000 0.19677  0.88003  0.70464  Biso   1.000  C
  O17      1.0000 0.56307  0.87183  0.75284  Biso   1.000  O
  C9       1.0000 0.68417  0.89013  0.74001  Biso   1.000  C
  O18      1.0000 0.01647  0.18113  0.69340  Biso   1.000  O
  O19      1.0000 0.15347  0.44253  0.69110  Biso   1.000  O
  O20      1.0000 0.82217  0.97913  0.75272  Biso   1.000  O
  C10      1.0000 0.11997  0.31673  0.70464  Biso   1.000  C
  O21      1.0000 0.12817  0.69123  0.75284  Biso   1.000  O
  C11      1.0000 0.10987  0.79403  0.74001  Biso   1.000  C
  O22      1.0000 0.81887  0.83533  0.69340  Biso   1.000  O
  O23      1.0000 0.55747  0.71093  0.69110  Biso   1.000  O
  O24      1.0000 0.02087  0.84303  0.75272  Biso   1.000  O
  C12      1.0000 0.68327  0.80323  0.70464  Biso   1.000  C
  Fe2      1.0000 0.00000  0.00000  0.72188  Biso   1.000  Fe
  Na2      1.0000 0.33333  0.66667  0.72513  Biso   1.000  Na
  O25      1.0000 0.97543  0.77027  0.08618  Biso   1.000  O
  C13      1.0000 0.87263  0.64917  0.07335  Biso   1.000  C
  O26      1.0000 0.83133  0.31687  0.02674  Biso   1.000  O
  O27      1.0000 0.95573  0.17987  0.02444  Biso   1.000  O
  O28      1.0000 0.82363  0.51117  0.08606  Biso   1.000  O
  C14      1.0000 0.86343  0.21337  0.03798  Biso   1.000  C
  O29      1.0000 0.22973  0.20517  0.08618  Biso   1.000  O
  C15      1.0000 0.35083  0.22347  0.07335  Biso   1.000  C
  O30      1.0000 0.68313  0.51447  0.02674  Biso   1.000  O
  O31      1.0000 0.82013  0.77587  0.02444  Biso   1.000  O
  O32      1.0000 0.48883  0.31247  0.08606  Biso   1.000  O
  C16      1.0000 0.78663  0.65007  0.03798  Biso   1.000  C
  O33      1.0000 0.79483  0.02457  0.08618  Biso   1.000  O
  C17      1.0000 0.77653  0.12737  0.07335  Biso   1.000  C
  O34      1.0000 0.48553  0.16867  0.02674  Biso   1.000  O
  O35      1.0000 0.22413  0.04427  0.02444  Biso   1.000  O
  O36      1.0000 0.68753  0.17637  0.08606  Biso   1.000  O
  C18      1.0000 0.34993  0.13657  0.03798  Biso   1.000  C
  Fe3      1.0000 0.66667  0.33333  0.05522  Biso   1.000  Fe
  Na3      1.0000 0.00000  0.00000  0.05847  Biso   1.000  Na
  O37      1.0000 0.89640  0.35790  0.91951  Biso   1.000  O
  C19      1.0000 0.01750  0.46070  0.90668  Biso   1.000  C
  O38      1.0000 0.34980  0.50200  0.86007  Biso   1.000  O
  O39      1.0000 0.48680  0.37760  0.85777  Biso   1.000  O
  O40      1.0000 0.15550  0.50970  0.91939  Biso   1.000  O
  C20      1.0000 0.45330  0.46990  0.87131  Biso   1.000  C
  O41      1.0000 0.46150  0.10360  0.91951  Biso   1.000  O
  C21      1.0000 0.44320  0.98250  0.90668  Biso   1.000  C
  O42      1.0000 0.15220  0.65020  0.86007  Biso   1.000  O
  O43      1.0000 0.89080  0.51320  0.85777  Biso   1.000  O
  O44      1.0000 0.35420  0.84450  0.91939  Biso   1.000  O
  C22      1.0000 0.01660  0.54670  0.87131  Biso   1.000  C
  O45      1.0000 0.64210  0.53850  0.91951  Biso   1.000  O
  C23      1.0000 0.53930  0.55680  0.90668  Biso   1.000  C
  O46      1.0000 0.49800  0.84780  0.86007  Biso   1.000  O
  O47      1.0000 0.62240  0.10920  0.85777  Biso   1.000  O
  O48      1.0000 0.49030  0.64580  0.91939  Biso   1.000  O
  C24      1.0000 0.53010  0.98340  0.87131  Biso   1.000  C
  Fe4      1.0000 0.33333  0.66667  0.88855  Biso   1.000  Fe
  Na4      1.0000 0.66667  0.33333  0.89180  Biso   1.000  Na
  O49      1.0000 0.56307  0.69123  0.25284  Biso   1.000  O
  C25      1.0000 0.68417  0.79403  0.24001  Biso   1.000  C
  O50      1.0000 0.01647  0.83533  0.19340  Biso   1.000  O
  O51      1.0000 0.15347  0.71093  0.19110  Biso   1.000  O
  O52      1.0000 0.82217  0.84303  0.25272  Biso   1.000  O
  C26      1.0000 0.11997  0.80323  0.20464  Biso   1.000  C
  O53      1.0000 0.12817  0.43693  0.25284  Biso   1.000  O
  C27      1.0000 0.10987  0.31583  0.24001  Biso   1.000  C
  O54      1.0000 0.81887  0.98353  0.19340  Biso   1.000  O
  O55      1.0000 0.55747  0.84653  0.19110  Biso   1.000  O
  O56      1.0000 0.02087  0.17783  0.25272  Biso   1.000  O
  C28      1.0000 0.68327  0.88003  0.20464  Biso   1.000  C
  O57      1.0000 0.30877  0.87183  0.25284  Biso   1.000  O
  C29      1.0000 0.20597  0.89013  0.24001  Biso   1.000  C
  O58      1.0000 0.16467  0.18113  0.19340  Biso   1.000  O
  O59      1.0000 0.28907  0.44253  0.19110  Biso   1.000  O
  O60      1.0000 0.15697  0.97913  0.25272  Biso   1.000  O
  C30      1.0000 0.19677  0.31673  0.20464  Biso   1.000  C
  Fe5      1.0000 0.00000  0.00000  0.22188  Biso   1.000  Fe
  Na5      1.0000 0.33333  0.66667  0.22513  Biso   1.000  Na
  O61      1.0000 0.22973  0.02457  0.58618  Biso   1.000  O
  C31      1.0000 0.35083  0.12737  0.57335  Biso   1.000  C
  O62      1.0000 0.68313  0.16867  0.52674  Biso   1.000  O
  O63      1.0000 0.82013  0.04427  0.52444  Biso   1.000  O
  O64      1.0000 0.48883  0.17637  0.58606  Biso   1.000  O
  C32      1.0000 0.78663  0.13657  0.53798  Biso   1.000  C
  O65      1.0000 0.79483  0.77027  0.58618  Biso   1.000  O
  C33      1.0000 0.77653  0.64917  0.57335  Biso   1.000  C
  O66      1.0000 0.48553  0.31687  0.52674  Biso   1.000  O
  O67      1.0000 0.22413  0.17987  0.52444  Biso   1.000  O
  O68      1.0000 0.68753  0.51117  0.58606  Biso   1.000  O
  C34      1.0000 0.34993  0.21337  0.53798  Biso   1.000  C
  O69      1.0000 0.97543  0.20517  0.58618  Biso   1.000  O
  C35      1.0000 0.87263  0.22347  0.57335  Biso   1.000  C
  O70      1.0000 0.83133  0.51447  0.52674  Biso   1.000  O
  O71      1.0000 0.95573  0.77587  0.52444  Biso   1.000  O
  O72      1.0000 0.82363  0.31247  0.58606  Biso   1.000  O
  C36      1.0000 0.86343  0.65007  0.53798  Biso   1.000  C
  Fe6      1.0000 0.66667  0.33333  0.55522  Biso   1.000  Fe
  Na6      1.0000 0.00000  0.00000  0.55847  Biso   1.000  Na
