data_SOWYIM_clean
_audit_creation_date              2014-07-02
_audit_creation_method            'Materials Studio'
_symmetry_space_group_name_H-M    'P1'
_symmetry_Int_Tables_number       1
_symmetry_cell_setting            triclinic
loop_
_symmetry_equiv_pos_as_xyz
  x,y,z
_cell_length_a                    11.4990
_cell_length_b                    11.4990
_cell_length_c                    15.7950
_cell_angle_alpha                 90.0000
_cell_angle_beta                  90.0000
_cell_angle_gamma                 90.0000
loop_
_atom_site_label
_atom_site_type_symbol
_atom_site_fract_x
_atom_site_fract_y
_atom_site_fract_z
_atom_site_U_iso_or_equiv
_atom_site_adp_type
_atom_site_occupancy
Na1    Na    0.39170   0.60830   0.75000   0.01267  Uiso   1.00
Si1    Si    0.52010   0.35840   0.67680   0.01267  Uiso   1.00
Si2    Si    0.64160   0.47990   0.82320   0.01267  Uiso   1.00
H1     H     0.62090   0.30160   0.54570   0.01267  Uiso   1.00
H2     H     0.62240   0.42940   0.55460   0.01267  Uiso   1.00
H3     H     0.70960   0.35780   0.59930   0.01267  Uiso   1.00
H4     H     0.49820   0.15130   0.67740   0.01267  Uiso   1.00
H5     H     0.47370   0.18900   0.76500   0.01267  Uiso   1.00
H6     H     0.59430   0.16920   0.73780   0.01267  Uiso   1.00
H7     H     0.36780   0.44840   0.59440   0.01267  Uiso   1.00
H8     H     0.30640   0.37610   0.65780   0.01267  Uiso   1.00
H9     H     0.35680   0.32200   0.58150   0.01267  Uiso   1.00
H10    H     0.69840   0.37910   0.95430   0.01267  Uiso   1.00
H11    H     0.57060   0.37760   0.94540   0.01267  Uiso   1.00
H12    H     0.64220   0.29040   0.90070   0.01267  Uiso   1.00
H13    H     0.84870   0.50180   0.82260   0.01267  Uiso   1.00
H14    H     0.81100   0.52630   0.73500   0.01267  Uiso   1.00
H15    H     0.83080   0.40570   0.76220   0.01267  Uiso   1.00
H16    H     0.55160   0.63220   0.90560   0.01267  Uiso   1.00
H17    H     0.62390   0.69360   0.84220   0.01267  Uiso   1.00
H18    H     0.67800   0.64320   0.91850   0.01267  Uiso   1.00
C1     C     0.62860   0.36060   0.58780   0.01267  Uiso   1.00
C2     C     0.52430   0.20530   0.71870   0.01267  Uiso   1.00
C3     C     0.37480   0.37710   0.62470   0.01267  Uiso   1.00
C4     C     0.63940   0.37140   0.91220   0.01267  Uiso   1.00
C5     C     0.79470   0.47570   0.78130   0.01267  Uiso   1.00
C6     C     0.62290   0.62520   0.87530   0.01267  Uiso   1.00
N1     N     0.53800   0.46200   0.75000   0.01267  Uiso   1.00
Na2    Na    0.60830   0.39170   0.25000   0.01267  Uiso   1.00
Si3    Si    0.47990   0.64160   0.17680   0.01267  Uiso   1.00
Si4    Si    0.35840   0.52010   0.32320   0.01267  Uiso   1.00
H19    H     0.37910   0.69840   0.04570   0.01267  Uiso   1.00
H20    H     0.37760   0.57060   0.05460   0.01267  Uiso   1.00
H21    H     0.29040   0.64220   0.09930   0.01267  Uiso   1.00
H22    H     0.50180   0.84870   0.17740   0.01267  Uiso   1.00
H23    H     0.52630   0.81100   0.26500   0.01267  Uiso   1.00
H24    H     0.40570   0.83080   0.23780   0.01267  Uiso   1.00
H25    H     0.63220   0.55160   0.09440   0.01267  Uiso   1.00
H26    H     0.69360   0.62390   0.15780   0.01267  Uiso   1.00
H27    H     0.64320   0.67800   0.08150   0.01267  Uiso   1.00
H28    H     0.30160   0.62090   0.45430   0.01267  Uiso   1.00
H29    H     0.42940   0.62240   0.44540   0.01267  Uiso   1.00
H30    H     0.35780   0.70960   0.40070   0.01267  Uiso   1.00
H31    H     0.15130   0.49820   0.32260   0.01267  Uiso   1.00
H32    H     0.18900   0.47370   0.23500   0.01267  Uiso   1.00
H33    H     0.16920   0.59430   0.26220   0.01267  Uiso   1.00
H34    H     0.44840   0.36780   0.40560   0.01267  Uiso   1.00
H35    H     0.37610   0.30640   0.34220   0.01267  Uiso   1.00
H36    H     0.32200   0.35680   0.41850   0.01267  Uiso   1.00
C7     C     0.37140   0.63940   0.08780   0.01267  Uiso   1.00
C8     C     0.47570   0.79470   0.21870   0.01267  Uiso   1.00
C9     C     0.62520   0.62290   0.12470   0.01267  Uiso   1.00
C10    C     0.36060   0.62860   0.41220   0.01267  Uiso   1.00
C11    C     0.20530   0.52430   0.28130   0.01267  Uiso   1.00
C12    C     0.37710   0.37480   0.37530   0.01267  Uiso   1.00
N2     N     0.46200   0.53800   0.25000   0.01267  Uiso   1.00
Na3    Na    0.89170   0.89170   0.50000   0.01267  Uiso   1.00
Si5    Si    0.14160   0.02010   0.42680   0.01267  Uiso   1.00
Si6    Si    0.02010   0.14160   0.57320   0.01267  Uiso   1.00
H37    H     0.19840   0.12090   0.29570   0.01267  Uiso   1.00
H38    H     0.07060   0.12240   0.30460   0.01267  Uiso   1.00
H39    H     0.14220   0.20960   0.34930   0.01267  Uiso   1.00
H40    H     0.34870   0.99820   0.42740   0.01267  Uiso   1.00
H41    H     0.31100   0.97370   0.51500   0.01267  Uiso   1.00
H42    H     0.33080   0.09430   0.48780   0.01267  Uiso   1.00
H43    H     0.05160   0.86780   0.34440   0.01267  Uiso   1.00
H44    H     0.12390   0.80640   0.40780   0.01267  Uiso   1.00
H45    H     0.17800   0.85680   0.33150   0.01267  Uiso   1.00
H46    H     0.12090   0.19840   0.70430   0.01267  Uiso   1.00
H47    H     0.12240   0.07060   0.69540   0.01267  Uiso   1.00
H48    H     0.20960   0.14220   0.65070   0.01267  Uiso   1.00
H49    H     0.99820   0.34870   0.57260   0.01267  Uiso   1.00
H50    H     0.97370   0.31100   0.48500   0.01267  Uiso   1.00
H51    H     0.09430   0.33080   0.51220   0.01267  Uiso   1.00
H52    H     0.86780   0.05160   0.65560   0.01267  Uiso   1.00
H53    H     0.80640   0.12390   0.59220   0.01267  Uiso   1.00
H54    H     0.85680   0.17800   0.66850   0.01267  Uiso   1.00
C13    C     0.13940   0.12860   0.33780   0.01267  Uiso   1.00
C14    C     0.29470   0.02430   0.46870   0.01267  Uiso   1.00
C15    C     0.12290   0.87480   0.37470   0.01267  Uiso   1.00
C16    C     0.12860   0.13940   0.66220   0.01267  Uiso   1.00
C17    C     0.02430   0.29470   0.53130   0.01267  Uiso   1.00
C18    C     0.87480   0.12290   0.62530   0.01267  Uiso   1.00
N3     N     0.03800   0.03800   0.50000   0.01267  Uiso   1.00
Na4    Na    0.10830   0.10830   0.00000   0.01267  Uiso   1.00
Si7    Si    0.85840   0.97990   0.92680   0.01267  Uiso   1.00
Si8    Si    0.97990   0.85840   0.07320   0.01267  Uiso   1.00
H55    H     0.80160   0.87910   0.79570   0.01267  Uiso   1.00
H56    H     0.92940   0.87760   0.80460   0.01267  Uiso   1.00
H57    H     0.85780   0.79040   0.84930   0.01267  Uiso   1.00
H58    H     0.65130   0.00180   0.92740   0.01267  Uiso   1.00
H59    H     0.68900   0.02630   0.01500   0.01267  Uiso   1.00
H60    H     0.66920   0.90570   0.98780   0.01267  Uiso   1.00
H61    H     0.94840   0.13220   0.84440   0.01267  Uiso   1.00
H62    H     0.87610   0.19360   0.90780   0.01267  Uiso   1.00
H63    H     0.82200   0.14320   0.83150   0.01267  Uiso   1.00
H64    H     0.87910   0.80160   0.20430   0.01267  Uiso   1.00
H65    H     0.87760   0.92940   0.19540   0.01267  Uiso   1.00
H66    H     0.79040   0.85780   0.15070   0.01267  Uiso   1.00
H67    H     0.00180   0.65130   0.07260   0.01267  Uiso   1.00
H68    H     0.02630   0.68900   0.98500   0.01267  Uiso   1.00
H69    H     0.90570   0.66920   0.01220   0.01267  Uiso   1.00
H70    H     0.13220   0.94840   0.15560   0.01267  Uiso   1.00
H71    H     0.19360   0.87610   0.09220   0.01267  Uiso   1.00
H72    H     0.14320   0.82200   0.16850   0.01267  Uiso   1.00
C19    C     0.86060   0.87140   0.83780   0.01267  Uiso   1.00
C20    C     0.70530   0.97570   0.96870   0.01267  Uiso   1.00
C21    C     0.87710   0.12520   0.87470   0.01267  Uiso   1.00
C22    C     0.87140   0.86060   0.16220   0.01267  Uiso   1.00
C23    C     0.97570   0.70530   0.03130   0.01267  Uiso   1.00
C24    C     0.12520   0.87710   0.12530   0.01267  Uiso   1.00
N4     N     0.96200   0.96200   0.00000   0.01267  Uiso   1.00
