data_image0
_cell_length_a       9.7044
_cell_length_b       9.7044
_cell_length_c       6.8538
_cell_angle_alpha    90
_cell_angle_beta     90
_cell_angle_gamma    90

_symmetry_space_group_name_H-M    "P 1"
_symmetry_int_tables_number       1

loop_
  _symmetry_equiv_pos_as_xyz
  'x, y, z'

loop_
  _atom_site_label
  _atom_site_occupancy
  _atom_site_fract_x
  _atom_site_fract_y
  _atom_site_fract_z
  _atom_site_thermal_displace_type
  _atom_site_B_iso_or_equiv
  _atom_site_type_symbol
  C1       1.0000 0.53450  0.06600  0.16390  Biso   1.000  C
  H1       1.0000 0.55700  0.11130  0.28260  Biso   1.000  H
  C2       1.0000 0.96550  0.43400  0.16390  Biso   1.000  C
  H2       1.0000 0.94300  0.38870  0.28260  Biso   1.000  H
  C3       1.0000 0.43400  0.53450  0.16390  Biso   1.000  C
  H3       1.0000 0.38870  0.55700  0.28260  Biso   1.000  H
  C4       1.0000 0.06600  0.96550  0.16390  Biso   1.000  C
  H4       1.0000 0.11130  0.94300  0.28260  Biso   1.000  H
  C5       1.0000 0.46550  0.56600  0.83610  Biso   1.000  C
  H5       1.0000 0.44300  0.61130  0.71740  Biso   1.000  H
  C6       1.0000 0.03450  0.93400  0.83610  Biso   1.000  C
  H6       1.0000 0.05700  0.88870  0.71740  Biso   1.000  H
  C7       1.0000 0.56600  0.03450  0.83610  Biso   1.000  C
  H7       1.0000 0.61130  0.05700  0.71740  Biso   1.000  H
  C8       1.0000 0.93400  0.46550  0.83610  Biso   1.000  C
  H8       1.0000 0.88870  0.44300  0.71740  Biso   1.000  H
  C9       1.0000 0.46550  0.93400  0.83610  Biso   1.000  C
  H9       1.0000 0.44300  0.88870  0.71740  Biso   1.000  H
  C10      1.0000 0.03450  0.56600  0.83610  Biso   1.000  C
  H10      1.0000 0.05700  0.61130  0.71740  Biso   1.000  H
  C11      1.0000 0.56600  0.46550  0.83610  Biso   1.000  C
  H11      1.0000 0.61130  0.44300  0.71740  Biso   1.000  H
  C12      1.0000 0.93400  0.03450  0.83610  Biso   1.000  C
  H12      1.0000 0.88870  0.05700  0.71740  Biso   1.000  H
  C13      1.0000 0.53450  0.43400  0.16390  Biso   1.000  C
  H13      1.0000 0.55700  0.38870  0.28260  Biso   1.000  H
  C14      1.0000 0.96550  0.06600  0.16390  Biso   1.000  C
  H14      1.0000 0.94300  0.11130  0.28260  Biso   1.000  H
  C15      1.0000 0.43400  0.96550  0.16390  Biso   1.000  C
  H15      1.0000 0.38870  0.94300  0.28260  Biso   1.000  H
  C16      1.0000 0.06600  0.53450  0.16390  Biso   1.000  C
  H16      1.0000 0.11130  0.55700  0.28260  Biso   1.000  H
  Cu1      1.0000 0.75000  0.25000  0.00000  Biso   1.000  Cu
  Cu2      1.0000 0.25000  0.75000  0.00000  Biso   1.000  Cu
  N1       1.0000 0.60128  0.10128  0.00000  Biso   1.000  N
  N2       1.0000 0.89872  0.39872  0.00000  Biso   1.000  N
  N3       1.0000 0.39872  0.60128  0.00000  Biso   1.000  N
  N4       1.0000 0.10128  0.89872  0.00000  Biso   1.000  N
  N5       1.0000 0.39872  0.89872  0.00000  Biso   1.000  N
  N6       1.0000 0.10128  0.60128  0.00000  Biso   1.000  N
  N7       1.0000 0.60128  0.39872  0.00000  Biso   1.000  N
  N8       1.0000 0.89872  0.10128  0.00000  Biso   1.000  N
