data_image0
_cell_length_a       9.72
_cell_length_b       9.72
_cell_length_c       6.9414
_cell_angle_alpha    90
_cell_angle_beta     90
_cell_angle_gamma    90

_symmetry_space_group_name_H-M    "P 1"
_symmetry_int_tables_number       1

loop_
  _symmetry_equiv_pos_as_xyz
  'x, y, z'

loop_
  _atom_site_label
  _atom_site_occupancy
  _atom_site_fract_x
  _atom_site_fract_y
  _atom_site_fract_z
  _atom_site_thermal_displace_type
  _atom_site_B_iso_or_equiv
  _atom_site_type_symbol
  C1       1.0000 0.53790  0.06260  0.16150  Biso   1.000  C
  H1       1.0000 0.56210  0.10440  0.27710  Biso   1.000  H
  C2       1.0000 0.96210  0.43740  0.16150  Biso   1.000  C
  H2       1.0000 0.93790  0.39560  0.27710  Biso   1.000  H
  C3       1.0000 0.43740  0.53790  0.16150  Biso   1.000  C
  H3       1.0000 0.39560  0.56210  0.27710  Biso   1.000  H
  C4       1.0000 0.06260  0.96210  0.16150  Biso   1.000  C
  H4       1.0000 0.10440  0.93790  0.27710  Biso   1.000  H
  C5       1.0000 0.46210  0.56260  0.83850  Biso   1.000  C
  H5       1.0000 0.43790  0.60440  0.72290  Biso   1.000  H
  C6       1.0000 0.03790  0.93740  0.83850  Biso   1.000  C
  H6       1.0000 0.06210  0.89560  0.72290  Biso   1.000  H
  C7       1.0000 0.56260  0.03790  0.83850  Biso   1.000  C
  H7       1.0000 0.60440  0.06210  0.72290  Biso   1.000  H
  C8       1.0000 0.93740  0.46210  0.83850  Biso   1.000  C
  H8       1.0000 0.89560  0.43790  0.72290  Biso   1.000  H
  C9       1.0000 0.46210  0.93740  0.83850  Biso   1.000  C
  H9       1.0000 0.43790  0.89560  0.72290  Biso   1.000  H
  C10      1.0000 0.03790  0.56260  0.83850  Biso   1.000  C
  H10      1.0000 0.06210  0.60440  0.72290  Biso   1.000  H
  C11      1.0000 0.56260  0.46210  0.83850  Biso   1.000  C
  H11      1.0000 0.60440  0.43790  0.72290  Biso   1.000  H
  C12      1.0000 0.93740  0.03790  0.83850  Biso   1.000  C
  H12      1.0000 0.89560  0.06210  0.72290  Biso   1.000  H
  C13      1.0000 0.53790  0.43740  0.16150  Biso   1.000  C
  H13      1.0000 0.56210  0.39560  0.27710  Biso   1.000  H
  C14      1.0000 0.96210  0.06260  0.16150  Biso   1.000  C
  H14      1.0000 0.93790  0.10440  0.27710  Biso   1.000  H
  C15      1.0000 0.43740  0.96210  0.16150  Biso   1.000  C
  H15      1.0000 0.39560  0.93790  0.27710  Biso   1.000  H
  C16      1.0000 0.06260  0.53790  0.16150  Biso   1.000  C
  H16      1.0000 0.10440  0.56210  0.27710  Biso   1.000  H
  Cu1      1.0000 0.75000  0.25000  0.00000  Biso   1.000  Cu
  Cu2      1.0000 0.25000  0.75000  0.00000  Biso   1.000  Cu
  N1       1.0000 0.60100  0.10100  0.00000  Biso   1.000  N
  N2       1.0000 0.89900  0.39900  0.00000  Biso   1.000  N
  N3       1.0000 0.39900  0.60100  0.00000  Biso   1.000  N
  N4       1.0000 0.10100  0.89900  0.00000  Biso   1.000  N
  N5       1.0000 0.39900  0.89900  0.00000  Biso   1.000  N
  N6       1.0000 0.10100  0.60100  0.00000  Biso   1.000  N
  N7       1.0000 0.60100  0.39900  0.00000  Biso   1.000  N
  N8       1.0000 0.89900  0.10100  0.00000  Biso   1.000  N
