data_image0
_cell_length_a       9.719
_cell_length_b       9.719
_cell_length_c       6.865
_cell_angle_alpha    90
_cell_angle_beta     90
_cell_angle_gamma    90

_symmetry_space_group_name_H-M    "P 1"
_symmetry_int_tables_number       1

loop_
  _symmetry_equiv_pos_as_xyz
  'x, y, z'

loop_
  _atom_site_label
  _atom_site_occupancy
  _atom_site_fract_x
  _atom_site_fract_y
  _atom_site_fract_z
  _atom_site_thermal_displace_type
  _atom_site_B_iso_or_equiv
  _atom_site_type_symbol
  C1       1.0000 0.53467  0.06587  0.16380  Biso   1.000  C
  H1       1.0000 0.55710  0.11090  0.28240  Biso   1.000  H
  C2       1.0000 0.96533  0.43413  0.16380  Biso   1.000  C
  H2       1.0000 0.94290  0.38910  0.28240  Biso   1.000  H
  C3       1.0000 0.43413  0.53467  0.16380  Biso   1.000  C
  H3       1.0000 0.38910  0.55710  0.28240  Biso   1.000  H
  C4       1.0000 0.06587  0.96533  0.16380  Biso   1.000  C
  H4       1.0000 0.11090  0.94290  0.28240  Biso   1.000  H
  C5       1.0000 0.46533  0.56587  0.83620  Biso   1.000  C
  H5       1.0000 0.44290  0.61090  0.71760  Biso   1.000  H
  C6       1.0000 0.03467  0.93413  0.83620  Biso   1.000  C
  H6       1.0000 0.05710  0.88910  0.71760  Biso   1.000  H
  C7       1.0000 0.56587  0.03467  0.83620  Biso   1.000  C
  H7       1.0000 0.61090  0.05710  0.71760  Biso   1.000  H
  C8       1.0000 0.93413  0.46533  0.83620  Biso   1.000  C
  H8       1.0000 0.88910  0.44290  0.71760  Biso   1.000  H
  C9       1.0000 0.46533  0.93413  0.83620  Biso   1.000  C
  H9       1.0000 0.44290  0.88910  0.71760  Biso   1.000  H
  C10      1.0000 0.03467  0.56587  0.83620  Biso   1.000  C
  H10      1.0000 0.05710  0.61090  0.71760  Biso   1.000  H
  C11      1.0000 0.56587  0.46533  0.83620  Biso   1.000  C
  H11      1.0000 0.61090  0.44290  0.71760  Biso   1.000  H
  C12      1.0000 0.93413  0.03467  0.83620  Biso   1.000  C
  H12      1.0000 0.88910  0.05710  0.71760  Biso   1.000  H
  C13      1.0000 0.53467  0.43413  0.16380  Biso   1.000  C
  H13      1.0000 0.55710  0.38910  0.28240  Biso   1.000  H
  C14      1.0000 0.96533  0.06587  0.16380  Biso   1.000  C
  H14      1.0000 0.94290  0.11090  0.28240  Biso   1.000  H
  C15      1.0000 0.43413  0.96533  0.16380  Biso   1.000  C
  H15      1.0000 0.38910  0.94290  0.28240  Biso   1.000  H
  C16      1.0000 0.06587  0.53467  0.16380  Biso   1.000  C
  H16      1.0000 0.11090  0.55710  0.28240  Biso   1.000  H
  Cu1      1.0000 0.75000  0.25000  0.00000  Biso   1.000  Cu
  Cu2      1.0000 0.25000  0.75000  0.00000  Biso   1.000  Cu
  N1       1.0000 0.60129  0.10129  0.00000  Biso   1.000  N
  N2       1.0000 0.89871  0.39871  0.00000  Biso   1.000  N
  N3       1.0000 0.39871  0.60129  0.00000  Biso   1.000  N
  N4       1.0000 0.10129  0.89871  0.00000  Biso   1.000  N
  N5       1.0000 0.39871  0.89871  0.00000  Biso   1.000  N
  N6       1.0000 0.10129  0.60129  0.00000  Biso   1.000  N
  N7       1.0000 0.60129  0.39871  0.00000  Biso   1.000  N
  N8       1.0000 0.89871  0.10129  0.00000  Biso   1.000  N
