data_image0
_cell_length_a       15.088
_cell_length_b       13.2353
_cell_length_c       18.0221
_cell_angle_alpha    90
_cell_angle_beta     94.414
_cell_angle_gamma    90

_symmetry_space_group_name_H-M    "P 1"
_symmetry_int_tables_number       1

loop_
  _symmetry_equiv_pos_as_xyz
  'x, y, z'

loop_
  _atom_site_label
  _atom_site_occupancy
  _atom_site_fract_x
  _atom_site_fract_y
  _atom_site_fract_z
  _atom_site_thermal_displace_type
  _atom_site_B_iso_or_equiv
  _atom_site_type_symbol
  W1       1.0000 0.79590  0.94140  0.08758  Biso   1.000  W
  W2       1.0000 0.62141  0.01956  0.16649  Biso   1.000  W
  W3       1.0000 0.82176  0.08234  0.23688  Biso   1.000  W
  W4       1.0000 0.56710  0.90831  0.34567  Biso   1.000  W
  W5       1.0000 0.76352  0.97576  0.41780  Biso   1.000  W
  W6       1.0000 0.69757  0.74168  0.42872  Biso   1.000  W
  W7       1.0000 0.96435  0.88688  0.33274  Biso   1.000  W
  W8       1.0000 0.89574  0.64994  0.33809  Biso   1.000  W
  W9       1.0000 0.94563  0.74993  0.18182  Biso   1.000  W
  W10      1.0000 0.72224  0.67455  0.09860  Biso   1.000  W
  W11      1.0000 0.66965  0.58271  0.25858  Biso   1.000  W
  W12      1.0000 0.54318  0.75389  0.17336  Biso   1.000  W
  Zn1      1.0000 0.75059  0.82979  0.25507  Biso   1.000  Zn
  Zn2      1.0000 0.39985  0.05612  0.43966  Biso   1.000  Zn
  Zn3      1.0000 0.90305  0.10114  0.94156  Biso   1.000  Zn
  O1       1.0000 0.68310  0.01300  0.07450  Biso   1.000  O
  O2       1.0000 0.85160  0.06410  0.13730  Biso   1.000  O
  O3       1.0000 0.89740  0.86640  0.12980  Biso   1.000  O
  O4       1.0000 0.74240  0.81700  0.07100  Biso   1.000  O
  O5       1.0000 0.74890  0.94600  0.19520  Biso   1.000  O
  O6       1.0000 0.70230  0.12860  0.20250  Biso   1.000  O
  O7       1.0000 0.59000  0.99840  0.26630  Biso   1.000  O
  O8       1.0000 0.57510  0.88850  0.14420  Biso   1.000  O
  O9       1.0000 0.77500  0.05800  0.33390  Biso   1.000  O
  O10      1.0000 0.91580  0.99400  0.27240  Biso   1.000  O
  O11      1.0000 0.46690  0.95570  0.37100  Biso   1.000  O
  O12      1.0000 0.63880  0.00320  0.41250  Biso   1.000  O
  O13      1.0000 0.57920  0.80600  0.42170  Biso   1.000  O
  O14      1.0000 0.53470  0.81170  0.27030  Biso   1.000  O
  O15      1.0000 0.70190  0.85730  0.34510  Biso   1.000  O
  O16      1.0000 0.74400  0.85620  0.48310  Biso   1.000  O
  O17      1.0000 0.87460  0.91780  0.39970  Biso   1.000  O
  O18      1.0000 0.67620  0.66530  0.50330  Biso   1.000  O
  O19      1.0000 0.80930  0.70060  0.40720  Biso   1.000  O
  O20      1.0000 0.65500  0.65480  0.34710  Biso   1.000  O
  O21      1.0000 0.97880  0.75220  0.37820  Biso   1.000  O
  O22      1.0000 0.02290  0.83460  0.24690  Biso   1.000  O
  O23      1.0000 0.86610  0.78610  0.27290  Biso   1.000  O
  O24      1.0000 0.84340  0.68250  0.13750  Biso   1.000  O
  O25      1.0000 0.96290  0.63820  0.25280  Biso   1.000  O
  O26      1.0000 0.79470  0.58990  0.28720  Biso   1.000  O
  O27      1.0000 0.59370  0.70540  0.08490  Biso   1.000  O
  O28      1.0000 0.68450  0.72770  0.20480  Biso   1.000  O
  O29      1.0000 0.55110  0.62300  0.21980  Biso   1.000  O
  O30      1.0000 0.70020  0.55630  0.15480  Biso   1.000  O
  C1       1.0000 0.34750  0.09980  0.27430  Biso   1.000  C
  H1       1.0000 0.40890  0.10110  0.27190  Biso   1.000  H
  C2       1.0000 0.29610  0.11580  0.20820  Biso   1.000  C
  C3       1.0000 0.20240  0.10930  0.21310  Biso   1.000  C
  C4       1.0000 0.16830  0.09060  0.28370  Biso   1.000  C
  H2       1.0000 0.10740  0.08480  0.28760  Biso   1.000  H
  C5       1.0000 0.22770  0.08110  0.34650  Biso   1.000  C
  H3       1.0000 0.20580  0.07340  0.39310  Biso   1.000  H
  C6       1.0000 0.13540  0.11720  0.14500  Biso   1.000  C
  C7       1.0000 0.12390  0.20320  0.10270  Biso   1.000  C
  H4       1.0000 0.15920  0.26030  0.11120  Biso   1.000  H
  C8       1.0000 0.05320  0.19890  0.04420  Biso   1.000  C
  H5       1.0000 0.03910  0.25700  0.01680  Biso   1.000  H
  C9       1.0000 0.02650  0.03390  0.06730  Biso   1.000  C
  H6       1.0000 0.99760  0.97430  0.05270  Biso   1.000  H
  C10      1.0000 0.08730  0.02820  0.13020  Biso   1.000  C
  H7       1.0000 0.09490  0.97050  0.15940  Biso   1.000  H
  C11      1.0000 0.84470  0.04810  0.78110  Biso   1.000  C
  H8       1.0000 0.90500  0.04000  0.77540  Biso   1.000  H
  C12      1.0000 0.78090  0.03870  0.71920  Biso   1.000  C
  C13      1.0000 0.69520  0.03880  0.72020  Biso   1.000  C
  C14      1.0000 0.67720  0.05890  0.78680  Biso   1.000  C
  H9       1.0000 0.61680  0.06980  0.79040  Biso   1.000  H
  C15      1.0000 0.72400  0.06820  0.85230  Biso   1.000  C
  H10      1.0000 0.69760  0.07370  0.89720  Biso   1.000  H
  C16      1.0000 0.63180  0.03620  0.65440  Biso   1.000  C
  C17      1.0000 0.58860  0.12450  0.63210  Biso   1.000  C
  H11      1.0000 0.59640  0.18470  0.65840  Biso   1.000  H
  C18      1.0000 0.53240  0.11620  0.56690  Biso   1.000  C
  H12      1.0000 0.51360  0.17780  0.54660  Biso   1.000  H
  C19      1.0000 0.55530  0.94850  0.55200  Biso   1.000  C
  H13      1.0000 0.54640  0.89160  0.52220  Biso   1.000  H
  C20      1.0000 0.61440  0.94410  0.61240  Biso   1.000  C
  H14      1.0000 0.64290  0.88400  0.62640  Biso   1.000  H
  C21      1.0000 0.26110  0.94720  0.52570  Biso   1.000  C
  H15      1.0000 0.22990  0.00620  0.53380  Biso   1.000  H
  C22      1.0000 0.30110  0.78930  0.52980  Biso   1.000  C
  H16      1.0000 0.30230  0.71990  0.53790  Biso   1.000  H
  C23      1.0000 0.35520  0.84110  0.49090  Biso   1.000  C
  H17      1.0000 0.40510  0.81490  0.47050  Biso   1.000  H
  C24      1.0000 0.17030  0.83640  0.60020  Biso   1.000  C
  H18      1.0000 0.16320  0.89200  0.63440  Biso   1.000  H
  H19      1.0000 0.18210  0.77550  0.62920  Biso   1.000  H
  C25      1.0000 0.08290  0.82290  0.54740  Biso   1.000  C
  H20      1.0000 0.07670  0.87750  0.51060  Biso   1.000  H
  C26      1.0000 0.95360  0.72690  0.57360  Biso   1.000  C
  H21      1.0000 0.91020  0.74000  0.53210  Biso   1.000  H
  H22      1.0000 0.92280  0.70040  0.61470  Biso   1.000  H
  C27      1.0000 0.02370  0.65120  0.55080  Biso   1.000  C
  H23      1.0000 0.05660  0.62120  0.59360  Biso   1.000  H
  H24      1.0000 0.99770  0.59820  0.51890  Biso   1.000  H
  C28      1.0000 0.07970  0.72100  0.50980  Biso   1.000  C
  H25      1.0000 0.05500  0.72790  0.45870  Biso   1.000  H
  H26      1.0000 0.13930  0.69390  0.50910  Biso   1.000  H
  C29      1.0000 0.76580  0.21660  0.02390  Biso   1.000  C
  H27      1.0000 0.74550  0.15760  0.04490  Biso   1.000  H
  C30      1.0000 0.78280  0.37490  0.00450  Biso   1.000  C
  H28      1.0000 0.78130  0.44500  0.00800  Biso   1.000  H
  C31      1.0000 0.83750  0.31770  0.96440  Biso   1.000  C
  H29      1.0000 0.87590  0.34360  0.93120  Biso   1.000  H
  C32      1.0000 0.65450  0.32550  0.08030  Biso   1.000  C
  H30      1.0000 0.66350  0.38610  0.11030  Biso   1.000  H
  H31      1.0000 0.64760  0.26890  0.11360  Biso   1.000  H
  C33      1.0000 0.57090  0.33690  0.02790  Biso   1.000  C
  H32      1.0000 0.58420  0.30870  0.97980  Biso   1.000  H
  C34      1.0000 0.43120  0.37280  0.07790  Biso   1.000  C
  H33      1.0000 0.37660  0.37570  0.04580  Biso   1.000  H
  H34      1.0000 0.41680  0.36420  0.12910  Biso   1.000  H
  C35      1.0000 0.48500  0.46160  0.06950  Biso   1.000  C
  H35      1.0000 0.44730  0.51850  0.05470  Biso   1.000  H
  H36      1.0000 0.51730  0.47790  0.11660  Biso   1.000  H
  C36      1.0000 0.54560  0.44350  0.01510  Biso   1.000  C
  H37      1.0000 0.59690  0.48760  0.02210  Biso   1.000  H
  H38      1.0000 0.51760  0.45310  0.96530  Biso   1.000  H
  N1       1.0000 0.31790  0.08290  0.34090  Biso   1.000  N
  N2       1.0000 0.00660  0.11330  0.02750  Biso   1.000  N
  N3       1.0000 0.33190  0.12290  0.14090  Biso   1.000  N
  H39      1.0000 0.38840  0.11750  0.13850  Biso   1.000  H
  H40      1.0000 0.29800  0.13280  0.10100  Biso   1.000  H
  N4       1.0000 0.81560  0.06890  0.84770  Biso   1.000  N
  N5       1.0000 0.50360  0.04290  0.53200  Biso   1.000  N
  N6       1.0000 0.82950  0.00810  0.65520  Biso   1.000  N
  H41      1.0000 0.80090  0.98830  0.61470  Biso   1.000  H
  H42      1.0000 0.88670  0.00990  0.65830  Biso   1.000  H
  N7       1.0000 0.32690  0.94220  0.48460  Biso   1.000  N
  N8       1.0000 0.24250  0.85660  0.55590  Biso   1.000  N
  N9       1.0000 0.00100  0.81960  0.59580  Biso   1.000  N
  H43      1.0000 0.01900  0.81810  0.64460  Biso   1.000  H
  H44      1.0000 0.96600  0.87400  0.58680  Biso   1.000  H
  N10      1.0000 0.82810  0.21730  0.97970  Biso   1.000  N
  N11      1.0000 0.73180  0.30850  0.03770  Biso   1.000  N
  N12      1.0000 0.49700  0.28160  0.05230  Biso   1.000  N
  H45      1.0000 0.51380  0.24080  0.09070  Biso   1.000  H
  H46      1.0000 0.47040  0.24450  0.01510  Biso   1.000  H
  C37      1.0000 0.57280  0.10730  0.52990  Biso   1.000  C
  H47      1.0000 0.58000  0.15150  0.49070  Biso   1.000  H
  C38      1.0000 0.48200  0.98900  0.58970  Biso   1.000  C
  H48      1.0000 0.42920  0.95410  0.59120  Biso   1.000  H
  C39      1.0000 0.63700  0.10000  0.59750  Biso   1.000  C
  H49      1.0000 0.68480  0.14390  0.60000  Biso   1.000  H
  C40      1.0000 0.55400  0.99000  0.65280  Biso   1.000  C
  H50      1.0000 0.54210  0.95440  0.69540  Biso   1.000  H
  W13      1.0000 0.20410  0.44140  0.91242  Biso   1.000  W
  W14      1.0000 0.37859  0.51956  0.83351  Biso   1.000  W
  W15      1.0000 0.17824  0.58234  0.76312  Biso   1.000  W
  W16      1.0000 0.43290  0.40831  0.65433  Biso   1.000  W
  W17      1.0000 0.23648  0.47576  0.58220  Biso   1.000  W
  W18      1.0000 0.30243  0.24168  0.57128  Biso   1.000  W
  W19      1.0000 0.03565  0.38688  0.66726  Biso   1.000  W
  W20      1.0000 0.10426  0.14994  0.66191  Biso   1.000  W
  W21      1.0000 0.05437  0.24993  0.81818  Biso   1.000  W
  W22      1.0000 0.27776  0.17455  0.90140  Biso   1.000  W
  W23      1.0000 0.33035  0.08271  0.74142  Biso   1.000  W
  W24      1.0000 0.45682  0.25389  0.82664  Biso   1.000  W
  Zn4      1.0000 0.24941  0.32979  0.74493  Biso   1.000  Zn
  Zn5      1.0000 0.60015  0.55612  0.56034  Biso   1.000  Zn
  Zn6      1.0000 0.09695  0.60114  0.05844  Biso   1.000  Zn
  O31      1.0000 0.31690  0.51300  0.92550  Biso   1.000  O
  O32      1.0000 0.14840  0.56410  0.86270  Biso   1.000  O
  O33      1.0000 0.10260  0.36640  0.87020  Biso   1.000  O
  O34      1.0000 0.25760  0.31700  0.92900  Biso   1.000  O
  O35      1.0000 0.25110  0.44600  0.80480  Biso   1.000  O
  O36      1.0000 0.29770  0.62860  0.79750  Biso   1.000  O
  O37      1.0000 0.41000  0.49840  0.73370  Biso   1.000  O
  O38      1.0000 0.42490  0.38850  0.85580  Biso   1.000  O
  O39      1.0000 0.22500  0.55800  0.66610  Biso   1.000  O
  O40      1.0000 0.08420  0.49400  0.72760  Biso   1.000  O
  O41      1.0000 0.53310  0.45570  0.62900  Biso   1.000  O
  O42      1.0000 0.36120  0.50320  0.58750  Biso   1.000  O
  O43      1.0000 0.42080  0.30600  0.57830  Biso   1.000  O
  O44      1.0000 0.46530  0.31170  0.72970  Biso   1.000  O
  O45      1.0000 0.29810  0.35730  0.65490  Biso   1.000  O
  O46      1.0000 0.25600  0.35620  0.51690  Biso   1.000  O
  O47      1.0000 0.12540  0.41780  0.60030  Biso   1.000  O
  O48      1.0000 0.32380  0.16530  0.49670  Biso   1.000  O
  O49      1.0000 0.19070  0.20060  0.59280  Biso   1.000  O
  O50      1.0000 0.34500  0.15480  0.65290  Biso   1.000  O
  O51      1.0000 0.02120  0.25220  0.62180  Biso   1.000  O
  O52      1.0000 0.97710  0.33460  0.75310  Biso   1.000  O
  O53      1.0000 0.13390  0.28610  0.72710  Biso   1.000  O
  O54      1.0000 0.15660  0.18250  0.86250  Biso   1.000  O
  O55      1.0000 0.03710  0.13820  0.74720  Biso   1.000  O
  O56      1.0000 0.20530  0.08990  0.71280  Biso   1.000  O
  O57      1.0000 0.40630  0.20540  0.91510  Biso   1.000  O
  O58      1.0000 0.31550  0.22770  0.79520  Biso   1.000  O
  O59      1.0000 0.44890  0.12300  0.78020  Biso   1.000  O
  O60      1.0000 0.29980  0.05630  0.84520  Biso   1.000  O
  C41      1.0000 0.65250  0.59980  0.72570  Biso   1.000  C
  H51      1.0000 0.59110  0.60110  0.72810  Biso   1.000  H
  C42      1.0000 0.70390  0.61580  0.79180  Biso   1.000  C
  C43      1.0000 0.79760  0.60930  0.78690  Biso   1.000  C
  C44      1.0000 0.83170  0.59060  0.71630  Biso   1.000  C
  H52      1.0000 0.89260  0.58480  0.71240  Biso   1.000  H
  C45      1.0000 0.77230  0.58110  0.65350  Biso   1.000  C
  H53      1.0000 0.79420  0.57340  0.60690  Biso   1.000  H
  C46      1.0000 0.86460  0.61720  0.85500  Biso   1.000  C
  C47      1.0000 0.87610  0.70320  0.89730  Biso   1.000  C
  H54      1.0000 0.84080  0.76030  0.88880  Biso   1.000  H
  C48      1.0000 0.94680  0.69890  0.95580  Biso   1.000  C
  H55      1.0000 0.96090  0.75700  0.98320  Biso   1.000  H
  C49      1.0000 0.97350  0.53390  0.93270  Biso   1.000  C
  H56      1.0000 0.00240  0.47430  0.94730  Biso   1.000  H
  C50      1.0000 0.91270  0.52820  0.86980  Biso   1.000  C
  H57      1.0000 0.90510  0.47050  0.84060  Biso   1.000  H
  C51      1.0000 0.15530  0.54810  0.21890  Biso   1.000  C
  H58      1.0000 0.09500  0.54000  0.22460  Biso   1.000  H
  C52      1.0000 0.21910  0.53870  0.28080  Biso   1.000  C
  C53      1.0000 0.30480  0.53880  0.27980  Biso   1.000  C
  C54      1.0000 0.32280  0.55890  0.21320  Biso   1.000  C
  H59      1.0000 0.38320  0.56980  0.20960  Biso   1.000  H
  C55      1.0000 0.27600  0.56820  0.14770  Biso   1.000  C
  H60      1.0000 0.30240  0.57370  0.10280  Biso   1.000  H
  C56      1.0000 0.36820  0.53620  0.34560  Biso   1.000  C
  C57      1.0000 0.41140  0.62450  0.36790  Biso   1.000  C
  H61      1.0000 0.40360  0.68470  0.34160  Biso   1.000  H
  C58      1.0000 0.46760  0.61620  0.43310  Biso   1.000  C
  H62      1.0000 0.48640  0.67780  0.45340  Biso   1.000  H
  C59      1.0000 0.44470  0.44850  0.44800  Biso   1.000  C
  H63      1.0000 0.45360  0.39160  0.47780  Biso   1.000  H
  C60      1.0000 0.38560  0.44410  0.38760  Biso   1.000  C
  H64      1.0000 0.35710  0.38400  0.37360  Biso   1.000  H
  C61      1.0000 0.73890  0.44720  0.47430  Biso   1.000  C
  H65      1.0000 0.77010  0.50620  0.46620  Biso   1.000  H
  C62      1.0000 0.69890  0.28930  0.47020  Biso   1.000  C
  H66      1.0000 0.69770  0.21990  0.46210  Biso   1.000  H
  C63      1.0000 0.64480  0.34110  0.50910  Biso   1.000  C
  H67      1.0000 0.59490  0.31490  0.52950  Biso   1.000  H
  C64      1.0000 0.82970  0.33640  0.39980  Biso   1.000  C
  H68      1.0000 0.83680  0.39200  0.36560  Biso   1.000  H
  H69      1.0000 0.81790  0.27550  0.37080  Biso   1.000  H
  C65      1.0000 0.91710  0.32290  0.45260  Biso   1.000  C
  H70      1.0000 0.92330  0.37750  0.48940  Biso   1.000  H
  C66      1.0000 0.04640  0.22690  0.42640  Biso   1.000  C
  H71      1.0000 0.08980  0.24000  0.46790  Biso   1.000  H
  H72      1.0000 0.07720  0.20040  0.38530  Biso   1.000  H
  C67      1.0000 0.97630  0.15120  0.44920  Biso   1.000  C
  H73      1.0000 0.94340  0.12120  0.40640  Biso   1.000  H
  H74      1.0000 0.00230  0.09820  0.48110  Biso   1.000  H
  C68      1.0000 0.92030  0.22100  0.49020  Biso   1.000  C
  H75      1.0000 0.94500  0.22790  0.54130  Biso   1.000  H
  H76      1.0000 0.86070  0.19390  0.49090  Biso   1.000  H
  C69      1.0000 0.23420  0.71660  0.97610  Biso   1.000  C
  H77      1.0000 0.25450  0.65760  0.95510  Biso   1.000  H
  C70      1.0000 0.21720  0.87490  0.99550  Biso   1.000  C
  H78      1.0000 0.21870  0.94500  0.99200  Biso   1.000  H
  C71      1.0000 0.16250  0.81770  0.03560  Biso   1.000  C
  H79      1.0000 0.12410  0.84360  0.06880  Biso   1.000  H
  C72      1.0000 0.34550  0.82550  0.91970  Biso   1.000  C
  H80      1.0000 0.33650  0.88610  0.88970  Biso   1.000  H
  H81      1.0000 0.35240  0.76890  0.88640  Biso   1.000  H
  C73      1.0000 0.42910  0.83690  0.97210  Biso   1.000  C
  H82      1.0000 0.41580  0.80870  0.02020  Biso   1.000  H
  C74      1.0000 0.56880  0.87280  0.92210  Biso   1.000  C
  H83      1.0000 0.62340  0.87570  0.95420  Biso   1.000  H
  H84      1.0000 0.58320  0.86420  0.87090  Biso   1.000  H
  C75      1.0000 0.51500  0.96160  0.93050  Biso   1.000  C
  H85      1.0000 0.55270  0.01850  0.94530  Biso   1.000  H
  H86      1.0000 0.48270  0.97790  0.88340  Biso   1.000  H
  C76      1.0000 0.45440  0.94350  0.98490  Biso   1.000  C
  H87      1.0000 0.40310  0.98760  0.97790  Biso   1.000  H
  H88      1.0000 0.48240  0.95310  0.03470  Biso   1.000  H
  N13      1.0000 0.68210  0.58290  0.65910  Biso   1.000  N
  N14      1.0000 0.99340  0.61330  0.97250  Biso   1.000  N
  N15      1.0000 0.66810  0.62290  0.85910  Biso   1.000  N
  H89      1.0000 0.61160  0.61750  0.86150  Biso   1.000  H
  H90      1.0000 0.70200  0.63280  0.89900  Biso   1.000  H
  N16      1.0000 0.18440  0.56890  0.15230  Biso   1.000  N
  N17      1.0000 0.49640  0.54290  0.46800  Biso   1.000  N
  N18      1.0000 0.17050  0.50810  0.34480  Biso   1.000  N
  H91      1.0000 0.19910  0.48830  0.38530  Biso   1.000  H
  H92      1.0000 0.11330  0.50990  0.34170  Biso   1.000  H
  N19      1.0000 0.67310  0.44220  0.51540  Biso   1.000  N
  N20      1.0000 0.75750  0.35660  0.44410  Biso   1.000  N
  N21      1.0000 0.99900  0.31960  0.40420  Biso   1.000  N
  H93      1.0000 0.98100  0.31810  0.35540  Biso   1.000  H
  H94      1.0000 0.03400  0.37400  0.41320  Biso   1.000  H
  N22      1.0000 0.17190  0.71730  0.02030  Biso   1.000  N
  N23      1.0000 0.26820  0.80850  0.96230  Biso   1.000  N
  N24      1.0000 0.50300  0.78160  0.94770  Biso   1.000  N
  H95      1.0000 0.48620  0.74080  0.90930  Biso   1.000  H
  H96      1.0000 0.52960  0.74450  0.98490  Biso   1.000  H
  C77      1.0000 0.42720  0.60730  0.47010  Biso   1.000  C
  H97      1.0000 0.42000  0.65150  0.50930  Biso   1.000  H
  C78      1.0000 0.51800  0.48900  0.41030  Biso   1.000  C
  H98      1.0000 0.57080  0.45410  0.40880  Biso   1.000  H
  C79      1.0000 0.36300  0.60000  0.40250  Biso   1.000  C
  H99      1.0000 0.31520  0.64390  0.40000  Biso   1.000  H
  C80      1.0000 0.44600  0.49000  0.34720  Biso   1.000  C
  H100     1.0000 0.45790  0.45440  0.30460  Biso   1.000  H
