data_image0
_cell_length_a       15.0637
_cell_length_b       15.0637
_cell_length_c       10.8379
_cell_angle_alpha    90
_cell_angle_beta     90
_cell_angle_gamma    90

_symmetry_space_group_name_H-M    "P 1"
_symmetry_int_tables_number       1

loop_
  _symmetry_equiv_pos_as_xyz
  'x, y, z'

loop_
  _atom_site_label
  _atom_site_occupancy
  _atom_site_fract_x
  _atom_site_fract_y
  _atom_site_fract_z
  _atom_site_thermal_displace_type
  _atom_site_B_iso_or_equiv
  _atom_site_type_symbol
  C1       1.0000 0.70030  0.86540  0.75450  Biso   1.000  C
  H1       1.0000 0.64990  0.85830  0.80800  Biso   1.000  H
  H2       1.0000 0.75360  0.86720  0.80300  Biso   1.000  H
  H3       1.0000 0.70310  0.81630  0.69820  Biso   1.000  H
  C2       1.0000 0.69110  0.95050  0.68310  Biso   1.000  C
  C3       1.0000 0.75820  0.97290  0.59940  Biso   1.000  C
  H4       1.0000 0.81330  0.94620  0.61040  Biso   1.000  H
  C4       1.0000 0.74930  0.03340  0.49810  Biso   1.000  C
  C5       1.0000 0.81890  0.03040  0.39550  Biso   1.000  C
  H5       1.0000 0.80470  0.07380  0.33390  Biso   1.000  H
  H6       1.0000 0.81940  0.97240  0.35880  Biso   1.000  H
  H7       1.0000 0.87640  0.04300  0.42960  Biso   1.000  H
  C6       1.0000 0.77800  0.27670  0.84410  Biso   1.000  C
  H8       1.0000 0.80620  0.22430  0.87580  Biso   1.000  H
  H9       1.0000 0.74830  0.30720  0.91010  Biso   1.000  H
  H10      1.0000 0.82200  0.31510  0.80860  Biso   1.000  H
  C7       1.0000 0.71120  0.25090  0.74650  Biso   1.000  C
  C8       1.0000 0.66320  0.32040  0.68840  Biso   1.000  C
  H11      1.0000 0.66690  0.37660  0.72330  Biso   1.000  H
  C9       1.0000 0.61010  0.31080  0.58190  Biso   1.000  C
  C10      1.0000 0.58500  0.39330  0.51090  Biso   1.000  C
  H12      1.0000 0.54970  0.37710  0.44070  Biso   1.000  H
  H13      1.0000 0.63790  0.42300  0.48360  Biso   1.000  H
  H14      1.0000 0.55160  0.43230  0.56330  Biso   1.000  H
  C11      1.0000 0.39390  0.14840  0.89540  Biso   1.000  C
  H15      1.0000 0.42650  0.19550  0.93410  Biso   1.000  H
  H16      1.0000 0.38790  0.09980  0.95210  Biso   1.000  H
  H17      1.0000 0.33610  0.16950  0.87230  Biso   1.000  H
  C12      1.0000 0.44300  0.11740  0.78170  Biso   1.000  C
  C13      1.0000 0.40540  0.04840  0.71000  Biso   1.000  C
  H18      1.0000 0.36080  0.01420  0.74560  Biso   1.000  H
  C14      1.0000 0.43110  0.02810  0.58850  Biso   1.000  C
  C15      1.0000 0.37550  0.96130  0.51920  Biso   1.000  C
  H19      1.0000 0.39920  0.95350  0.43770  Biso   1.000  H
  H20      1.0000 0.31550  0.98240  0.51370  Biso   1.000  H
  H21      1.0000 0.37650  0.90560  0.56220  Biso   1.000  H
  O1       1.0000 0.62160  0.99580  0.70000  Biso   1.000  O
  O2       1.0000 0.68560  0.08570  0.48520  Biso   1.000  O
  O3       1.0000 0.49570  0.06210  0.53090  Biso   1.000  O
  O4       1.0000 0.51490  0.15790  0.75750  Biso   1.000  O
  O5       1.0000 0.70280  0.16900  0.72530  Biso   1.000  O
  O6       1.0000 0.58420  0.23740  0.53860  Biso   1.000  O
  Ni1      1.0000 0.60177  0.11837  0.62214  Biso   1.000  Ni
  Ag1      1.0000 0.54348  0.31709  0.83204  Biso   1.000  Ag
  Ag2      1.0000 0.51851  0.06257  0.31184  Biso   1.000  Ag
  Ag3      1.0000 0.83580  0.06081  0.74542  Biso   1.000  Ag
  C16      1.0000 0.29970  0.13460  0.25450  Biso   1.000  C
  H22      1.0000 0.35010  0.14170  0.30800  Biso   1.000  H
  H23      1.0000 0.24640  0.13280  0.30300  Biso   1.000  H
  H24      1.0000 0.29690  0.18370  0.19820  Biso   1.000  H
  C17      1.0000 0.30890  0.04950  0.18310  Biso   1.000  C
  C18      1.0000 0.24180  0.02710  0.09940  Biso   1.000  C
  H25      1.0000 0.18670  0.05380  0.11040  Biso   1.000  H
  C19      1.0000 0.25070  0.96660  0.99810  Biso   1.000  C
  C20      1.0000 0.18110  0.96960  0.89550  Biso   1.000  C
  H26      1.0000 0.19530  0.92620  0.83390  Biso   1.000  H
  H27      1.0000 0.18060  0.02760  0.85880  Biso   1.000  H
  H28      1.0000 0.12360  0.95700  0.92960  Biso   1.000  H
  C21      1.0000 0.22200  0.72330  0.34410  Biso   1.000  C
  H29      1.0000 0.19380  0.77570  0.37580  Biso   1.000  H
  H30      1.0000 0.25170  0.69280  0.41010  Biso   1.000  H
  H31      1.0000 0.17800  0.68490  0.30860  Biso   1.000  H
  C22      1.0000 0.28880  0.74910  0.24650  Biso   1.000  C
  C23      1.0000 0.33680  0.67960  0.18840  Biso   1.000  C
  H32      1.0000 0.33310  0.62340  0.22330  Biso   1.000  H
  C24      1.0000 0.38990  0.68920  0.08190  Biso   1.000  C
  C25      1.0000 0.41500  0.60670  0.01090  Biso   1.000  C
  H33      1.0000 0.45030  0.62290  0.94070  Biso   1.000  H
  H34      1.0000 0.36210  0.57700  0.98360  Biso   1.000  H
  H35      1.0000 0.44840  0.56770  0.06330  Biso   1.000  H
  C26      1.0000 0.60610  0.85160  0.39540  Biso   1.000  C
  H36      1.0000 0.57350  0.80450  0.43410  Biso   1.000  H
  H37      1.0000 0.61210  0.90020  0.45210  Biso   1.000  H
  H38      1.0000 0.66390  0.83050  0.37230  Biso   1.000  H
  C27      1.0000 0.55700  0.88260  0.28170  Biso   1.000  C
  C28      1.0000 0.59460  0.95160  0.21000  Biso   1.000  C
  H39      1.0000 0.63920  0.98580  0.24560  Biso   1.000  H
  C29      1.0000 0.56890  0.97190  0.08850  Biso   1.000  C
  C30      1.0000 0.62450  0.03870  0.01920  Biso   1.000  C
  H40      1.0000 0.60080  0.04650  0.93770  Biso   1.000  H
  H41      1.0000 0.68450  0.01760  0.01370  Biso   1.000  H
  H42      1.0000 0.62350  0.09440  0.06220  Biso   1.000  H
  O7       1.0000 0.37840  0.00420  0.20000  Biso   1.000  O
  O8       1.0000 0.31440  0.91430  0.98520  Biso   1.000  O
  O9       1.0000 0.50430  0.93790  0.03090  Biso   1.000  O
  O10      1.0000 0.48510  0.84210  0.25750  Biso   1.000  O
  O11      1.0000 0.29720  0.83100  0.22530  Biso   1.000  O
  O12      1.0000 0.41580  0.76260  0.03860  Biso   1.000  O
  Ni2      1.0000 0.39823  0.88163  0.12214  Biso   1.000  Ni
  Ag4      1.0000 0.45652  0.68291  0.33204  Biso   1.000  Ag
  Ag5      1.0000 0.48149  0.93743  0.81184  Biso   1.000  Ag
  Ag6      1.0000 0.16420  0.93919  0.24542  Biso   1.000  Ag
  C31      1.0000 0.13460  0.70030  0.00450  Biso   1.000  C
  H43      1.0000 0.14170  0.64990  0.05800  Biso   1.000  H
  H44      1.0000 0.13280  0.75360  0.05300  Biso   1.000  H
  H45      1.0000 0.18370  0.70310  0.94820  Biso   1.000  H
  C32      1.0000 0.04950  0.69110  0.93310  Biso   1.000  C
  C33      1.0000 0.02710  0.75820  0.84940  Biso   1.000  C
  H46      1.0000 0.05380  0.81330  0.86040  Biso   1.000  H
  C34      1.0000 0.96660  0.74930  0.74810  Biso   1.000  C
  C35      1.0000 0.96960  0.81890  0.64550  Biso   1.000  C
  H47      1.0000 0.92620  0.80470  0.58390  Biso   1.000  H
  H48      1.0000 0.02760  0.81940  0.60880  Biso   1.000  H
  H49      1.0000 0.95700  0.87640  0.67960  Biso   1.000  H
  C36      1.0000 0.72330  0.77800  0.09410  Biso   1.000  C
  H50      1.0000 0.77570  0.80620  0.12580  Biso   1.000  H
  H51      1.0000 0.69280  0.74830  0.16010  Biso   1.000  H
  H52      1.0000 0.68490  0.82200  0.05860  Biso   1.000  H
  C37      1.0000 0.74910  0.71120  0.99650  Biso   1.000  C
  C38      1.0000 0.67960  0.66320  0.93840  Biso   1.000  C
  H53      1.0000 0.62340  0.66690  0.97330  Biso   1.000  H
  C39      1.0000 0.68920  0.61010  0.83190  Biso   1.000  C
  C40      1.0000 0.60670  0.58500  0.76090  Biso   1.000  C
  H54      1.0000 0.62290  0.54970  0.69070  Biso   1.000  H
  H55      1.0000 0.57700  0.63790  0.73360  Biso   1.000  H
  H56      1.0000 0.56770  0.55160  0.81330  Biso   1.000  H
  C41      1.0000 0.85160  0.39390  0.14540  Biso   1.000  C
  H57      1.0000 0.80450  0.42650  0.18410  Biso   1.000  H
  H58      1.0000 0.90020  0.38790  0.20210  Biso   1.000  H
  H59      1.0000 0.83050  0.33610  0.12230  Biso   1.000  H
  C42      1.0000 0.88260  0.44300  0.03170  Biso   1.000  C
  C43      1.0000 0.95160  0.40540  0.96000  Biso   1.000  C
  H60      1.0000 0.98580  0.36080  0.99560  Biso   1.000  H
  C44      1.0000 0.97190  0.43110  0.83850  Biso   1.000  C
  C45      1.0000 0.03870  0.37550  0.76920  Biso   1.000  C
  H61      1.0000 0.04650  0.39920  0.68770  Biso   1.000  H
  H62      1.0000 0.01760  0.31550  0.76370  Biso   1.000  H
  H63      1.0000 0.09440  0.37650  0.81220  Biso   1.000  H
  O13      1.0000 0.00420  0.62160  0.95000  Biso   1.000  O
  O14      1.0000 0.91430  0.68560  0.73520  Biso   1.000  O
  O15      1.0000 0.93790  0.49570  0.78090  Biso   1.000  O
  O16      1.0000 0.84210  0.51490  0.00750  Biso   1.000  O
  O17      1.0000 0.83100  0.70280  0.97530  Biso   1.000  O
  O18      1.0000 0.76260  0.58420  0.78860  Biso   1.000  O
  Ni3      1.0000 0.88163  0.60177  0.87214  Biso   1.000  Ni
  Ag7      1.0000 0.68291  0.54348  0.08204  Biso   1.000  Ag
  Ag8      1.0000 0.93743  0.51851  0.56184  Biso   1.000  Ag
  Ag9      1.0000 0.93919  0.83580  0.99542  Biso   1.000  Ag
  C46      1.0000 0.86540  0.29970  0.50450  Biso   1.000  C
  H64      1.0000 0.85830  0.35010  0.55800  Biso   1.000  H
  H65      1.0000 0.86720  0.24640  0.55300  Biso   1.000  H
  H66      1.0000 0.81630  0.29690  0.44820  Biso   1.000  H
  C47      1.0000 0.95050  0.30890  0.43310  Biso   1.000  C
  C48      1.0000 0.97290  0.24180  0.34940  Biso   1.000  C
  H67      1.0000 0.94620  0.18670  0.36040  Biso   1.000  H
  C49      1.0000 0.03340  0.25070  0.24810  Biso   1.000  C
  C50      1.0000 0.03040  0.18110  0.14550  Biso   1.000  C
  H68      1.0000 0.07380  0.19530  0.08390  Biso   1.000  H
  H69      1.0000 0.97240  0.18060  0.10880  Biso   1.000  H
  H70      1.0000 0.04300  0.12360  0.17960  Biso   1.000  H
  C51      1.0000 0.27670  0.22200  0.59410  Biso   1.000  C
  H71      1.0000 0.22430  0.19380  0.62580  Biso   1.000  H
  H72      1.0000 0.30720  0.25170  0.66010  Biso   1.000  H
  H73      1.0000 0.31510  0.17800  0.55860  Biso   1.000  H
  C52      1.0000 0.25090  0.28880  0.49650  Biso   1.000  C
  C53      1.0000 0.32040  0.33680  0.43840  Biso   1.000  C
  H74      1.0000 0.37660  0.33310  0.47330  Biso   1.000  H
  C54      1.0000 0.31080  0.38990  0.33190  Biso   1.000  C
  C55      1.0000 0.39330  0.41500  0.26090  Biso   1.000  C
  H75      1.0000 0.37710  0.45030  0.19070  Biso   1.000  H
  H76      1.0000 0.42300  0.36210  0.23360  Biso   1.000  H
  H77      1.0000 0.43230  0.44840  0.31330  Biso   1.000  H
  C56      1.0000 0.14840  0.60610  0.64540  Biso   1.000  C
  H78      1.0000 0.19550  0.57350  0.68410  Biso   1.000  H
  H79      1.0000 0.09980  0.61210  0.70210  Biso   1.000  H
  H80      1.0000 0.16950  0.66390  0.62230  Biso   1.000  H
  C57      1.0000 0.11740  0.55700  0.53170  Biso   1.000  C
  C58      1.0000 0.04840  0.59460  0.46000  Biso   1.000  C
  H81      1.0000 0.01420  0.63920  0.49560  Biso   1.000  H
  C59      1.0000 0.02810  0.56890  0.33850  Biso   1.000  C
  C60      1.0000 0.96130  0.62450  0.26920  Biso   1.000  C
  H82      1.0000 0.95350  0.60080  0.18770  Biso   1.000  H
  H83      1.0000 0.98240  0.68450  0.26370  Biso   1.000  H
  H84      1.0000 0.90560  0.62350  0.31220  Biso   1.000  H
  O19      1.0000 0.99580  0.37840  0.45000  Biso   1.000  O
  O20      1.0000 0.08570  0.31440  0.23520  Biso   1.000  O
  O21      1.0000 0.06210  0.50430  0.28090  Biso   1.000  O
  O22      1.0000 0.15790  0.48510  0.50750  Biso   1.000  O
  O23      1.0000 0.16900  0.29720  0.47530  Biso   1.000  O
  O24      1.0000 0.23740  0.41580  0.28860  Biso   1.000  O
  Ni4      1.0000 0.11837  0.39823  0.37214  Biso   1.000  Ni
  Ag10     1.0000 0.31709  0.45652  0.58204  Biso   1.000  Ag
  Ag11     1.0000 0.06257  0.48149  0.06184  Biso   1.000  Ag
  Ag12     1.0000 0.06081  0.16420  0.49542  Biso   1.000  Ag
