data_image0
_cell_length_a       9.655
_cell_length_b       14.749
_cell_length_c       6.9577
_cell_angle_alpha    90
_cell_angle_beta     90
_cell_angle_gamma    90

_symmetry_space_group_name_H-M    "P 1"
_symmetry_int_tables_number       1

loop_
  _symmetry_equiv_pos_as_xyz
  'x, y, z'

loop_
  _atom_site_label
  _atom_site_occupancy
  _atom_site_fract_x
  _atom_site_fract_y
  _atom_site_fract_z
  _atom_site_thermal_displace_type
  _atom_site_B_iso_or_equiv
  _atom_site_type_symbol
  Ag1      1.0000 0.73986  0.62788  0.15897  Biso   1.000  Ag
  C1       1.0000 0.53070  0.54030  0.79100  Biso   1.000  C
  H1       1.0000 0.56780  0.58550  0.69940  Biso   1.000  H
  H2       1.0000 0.49010  0.49010  0.71530  Biso   1.000  H
  C2       1.0000 0.41740  0.58430  0.91070  Biso   1.000  C
  H3       1.0000 0.45890  0.63230  0.99180  Biso   1.000  H
  H4       1.0000 0.34950  0.61330  0.82380  Biso   1.000  H
  S1       1.0000 0.67225  0.49626  0.93592  Biso   1.000  S
  Ag2      1.0000 0.76014  0.37212  0.65897  Biso   1.000  Ag
  C3       1.0000 0.96930  0.45970  0.29100  Biso   1.000  C
  H5       1.0000 0.93220  0.41450  0.19940  Biso   1.000  H
  H6       1.0000 0.00990  0.50990  0.21530  Biso   1.000  H
  C4       1.0000 0.08260  0.41570  0.41070  Biso   1.000  C
  H7       1.0000 0.04110  0.36770  0.49180  Biso   1.000  H
  H8       1.0000 0.15050  0.38670  0.32380  Biso   1.000  H
  S2       1.0000 0.82775  0.50374  0.43592  Biso   1.000  S
  Ag3      1.0000 0.26014  0.37212  0.84103  Biso   1.000  Ag
  C5       1.0000 0.46930  0.45970  0.20900  Biso   1.000  C
  H9       1.0000 0.43220  0.41450  0.30060  Biso   1.000  H
  H10      1.0000 0.50990  0.50990  0.28470  Biso   1.000  H
  C6       1.0000 0.58260  0.41570  0.08930  Biso   1.000  C
  H11      1.0000 0.54110  0.36770  0.00820  Biso   1.000  H
  H12      1.0000 0.65050  0.38670  0.17620  Biso   1.000  H
  S3       1.0000 0.32775  0.50374  0.06408  Biso   1.000  S
  Ag4      1.0000 0.23986  0.62788  0.34103  Biso   1.000  Ag
  C7       1.0000 0.03070  0.54030  0.70900  Biso   1.000  C
  H13      1.0000 0.06780  0.58550  0.80060  Biso   1.000  H
  H14      1.0000 0.99010  0.49010  0.78470  Biso   1.000  H
  C8       1.0000 0.91740  0.58430  0.58930  Biso   1.000  C
  H15      1.0000 0.95890  0.63230  0.50820  Biso   1.000  H
  H16      1.0000 0.84950  0.61330  0.67620  Biso   1.000  H
  S4       1.0000 0.17225  0.49626  0.56408  Biso   1.000  S
  Ag5      1.0000 0.26014  0.12788  0.84103  Biso   1.000  Ag
  C9       1.0000 0.46930  0.04030  0.20900  Biso   1.000  C
  H17      1.0000 0.43220  0.08550  0.30060  Biso   1.000  H
  H18      1.0000 0.50990  0.99010  0.28470  Biso   1.000  H
  C10      1.0000 0.58260  0.08430  0.08930  Biso   1.000  C
  H19      1.0000 0.54110  0.13230  0.00820  Biso   1.000  H
  H20      1.0000 0.65050  0.11330  0.17620  Biso   1.000  H
  S5       1.0000 0.32775  0.99626  0.06408  Biso   1.000  S
  Ag6      1.0000 0.23986  0.87212  0.34103  Biso   1.000  Ag
  C11      1.0000 0.03070  0.95970  0.70900  Biso   1.000  C
  H21      1.0000 0.06780  0.91450  0.80060  Biso   1.000  H
  H22      1.0000 0.99010  0.00990  0.78470  Biso   1.000  H
  C12      1.0000 0.91740  0.91570  0.58930  Biso   1.000  C
  H23      1.0000 0.95890  0.86770  0.50820  Biso   1.000  H
  H24      1.0000 0.84950  0.88670  0.67620  Biso   1.000  H
  S6       1.0000 0.17225  0.00374  0.56408  Biso   1.000  S
  Ag7      1.0000 0.73986  0.87212  0.15897  Biso   1.000  Ag
  C13      1.0000 0.53070  0.95970  0.79100  Biso   1.000  C
  H25      1.0000 0.56780  0.91450  0.69940  Biso   1.000  H
  H26      1.0000 0.49010  0.00990  0.71530  Biso   1.000  H
  C14      1.0000 0.41740  0.91570  0.91070  Biso   1.000  C
  H27      1.0000 0.45890  0.86770  0.99180  Biso   1.000  H
  H28      1.0000 0.34950  0.88670  0.82380  Biso   1.000  H
  S7       1.0000 0.67225  0.00374  0.93592  Biso   1.000  S
  Ag8      1.0000 0.76014  0.12788  0.65897  Biso   1.000  Ag
  C15      1.0000 0.96930  0.04030  0.29100  Biso   1.000  C
  H29      1.0000 0.93220  0.08550  0.19940  Biso   1.000  H
  H30      1.0000 0.00990  0.99010  0.21530  Biso   1.000  H
  C16      1.0000 0.08260  0.08430  0.41070  Biso   1.000  C
  H31      1.0000 0.04110  0.13230  0.49180  Biso   1.000  H
  H32      1.0000 0.15050  0.11330  0.32380  Biso   1.000  H
  S8       1.0000 0.82775  0.99626  0.43592  Biso   1.000  S
