data_image0
_cell_length_a       6.8653
_cell_length_b       6.8653
_cell_length_c       6.95
_cell_angle_alpha    90
_cell_angle_beta     90
_cell_angle_gamma    90

_symmetry_space_group_name_H-M    "P 1"
_symmetry_int_tables_number       1

loop_
  _symmetry_equiv_pos_as_xyz
  'x, y, z'

loop_
  _atom_site_label
  _atom_site_occupancy
  _atom_site_fract_x
  _atom_site_fract_y
  _atom_site_fract_z
  _atom_site_thermal_displace_type
  _atom_site_B_iso_or_equiv
  _atom_site_type_symbol
  Cu1      1.0000 0.50000  0.50000  0.50000  Biso   1.000  Cu
  N1       1.0000 0.79800  0.50000  0.50000  Biso   1.000  N
  N2       1.0000 0.20200  0.50000  0.50000  Biso   1.000  N
  N3       1.0000 0.50000  0.79800  0.50000  Biso   1.000  N
  N4       1.0000 0.50000  0.20200  0.50000  Biso   1.000  N
  C1       1.0000 0.89890  0.50000  0.33790  Biso   1.000  C
  H1       1.0000 0.83280  0.50000  0.22110  Biso   1.000  H
  C2       1.0000 0.10110  0.50000  0.33790  Biso   1.000  C
  H2       1.0000 0.16720  0.50000  0.22110  Biso   1.000  H
  C3       1.0000 0.50000  0.89890  0.33790  Biso   1.000  C
  H3       1.0000 0.50000  0.83280  0.22110  Biso   1.000  H
  C4       1.0000 0.50000  0.10110  0.33790  Biso   1.000  C
  H4       1.0000 0.50000  0.16720  0.22110  Biso   1.000  H
  C5       1.0000 0.10110  0.50000  0.66210  Biso   1.000  C
  H5       1.0000 0.16720  0.50000  0.77890  Biso   1.000  H
  C6       1.0000 0.89890  0.50000  0.66210  Biso   1.000  C
  H6       1.0000 0.83280  0.50000  0.77890  Biso   1.000  H
  C7       1.0000 0.50000  0.89890  0.66210  Biso   1.000  C
  H7       1.0000 0.50000  0.83280  0.77890  Biso   1.000  H
  C8       1.0000 0.50000  0.10110  0.66210  Biso   1.000  C
  H8       1.0000 0.50000  0.16720  0.77890  Biso   1.000  H
