data_image0
_cell_length_a       9.7134
_cell_length_b       9.7134
_cell_length_c       8.2415
_cell_angle_alpha    90
_cell_angle_beta     90
_cell_angle_gamma    90

_symmetry_space_group_name_H-M    "P 1"
_symmetry_int_tables_number       1

loop_
  _symmetry_equiv_pos_as_xyz
  'x, y, z'

loop_
  _atom_site_label
  _atom_site_occupancy
  _atom_site_fract_x
  _atom_site_fract_y
  _atom_site_fract_z
  _atom_site_thermal_displace_type
  _atom_site_B_iso_or_equiv
  _atom_site_type_symbol
  C1       1.0000 0.08787  0.01336  0.12399  Biso   1.000  C
  H1       1.0000 0.14880  0.02030  0.21380  Biso   1.000  H
  C2       1.0000 0.41213  0.48664  0.12399  Biso   1.000  C
  H2       1.0000 0.35120  0.47970  0.21380  Biso   1.000  H
  C3       1.0000 0.48664  0.08787  0.12399  Biso   1.000  C
  H3       1.0000 0.47970  0.14880  0.21380  Biso   1.000  H
  C4       1.0000 0.01336  0.41213  0.12399  Biso   1.000  C
  H4       1.0000 0.02030  0.35120  0.21380  Biso   1.000  H
  C5       1.0000 0.41213  0.01336  0.87601  Biso   1.000  C
  H5       1.0000 0.35120  0.02030  0.78620  Biso   1.000  H
  C6       1.0000 0.08787  0.48664  0.87601  Biso   1.000  C
  H6       1.0000 0.14880  0.47970  0.78620  Biso   1.000  H
  C7       1.0000 0.01336  0.08787  0.87601  Biso   1.000  C
  H7       1.0000 0.02030  0.14880  0.78620  Biso   1.000  H
  C8       1.0000 0.48664  0.41213  0.87601  Biso   1.000  C
  H8       1.0000 0.47970  0.35120  0.78620  Biso   1.000  H
  C9       1.0000 0.91213  0.98664  0.87601  Biso   1.000  C
  H9       1.0000 0.85120  0.97970  0.78620  Biso   1.000  H
  C10      1.0000 0.58787  0.51336  0.87601  Biso   1.000  C
  H10      1.0000 0.64880  0.52030  0.78620  Biso   1.000  H
  C11      1.0000 0.51336  0.91213  0.87601  Biso   1.000  C
  H11      1.0000 0.52030  0.85120  0.78620  Biso   1.000  H
  C12      1.0000 0.98664  0.58787  0.87601  Biso   1.000  C
  H12      1.0000 0.97970  0.64880  0.78620  Biso   1.000  H
  C13      1.0000 0.58787  0.98664  0.12399  Biso   1.000  C
  H13      1.0000 0.64880  0.97970  0.21380  Biso   1.000  H
  C14      1.0000 0.91213  0.51336  0.12399  Biso   1.000  C
  H14      1.0000 0.85120  0.52030  0.21380  Biso   1.000  H
  C15      1.0000 0.98664  0.91213  0.12399  Biso   1.000  C
  H15      1.0000 0.97970  0.85120  0.21380  Biso   1.000  H
  C16      1.0000 0.51336  0.58787  0.12399  Biso   1.000  C
  H16      1.0000 0.52030  0.64880  0.21380  Biso   1.000  H
  Cu1      1.0000 0.25000  0.25000  0.00000  Biso   1.000  Cu
  Cu2      1.0000 0.75000  0.75000  0.00000  Biso   1.000  Cu
  N1       1.0000 0.10110  0.10110  0.00000  Biso   1.000  N
  N2       1.0000 0.39890  0.39890  0.00000  Biso   1.000  N
  N3       1.0000 0.39890  0.10110  0.00000  Biso   1.000  N
  N4       1.0000 0.10110  0.39890  0.00000  Biso   1.000  N
  N5       1.0000 0.89890  0.89890  0.00000  Biso   1.000  N
  N6       1.0000 0.60110  0.60110  0.00000  Biso   1.000  N
  N7       1.0000 0.60110  0.89890  0.00000  Biso   1.000  N
  N8       1.0000 0.89890  0.60110  0.00000  Biso   1.000  N
