data_image0
_cell_length_a       9.7325
_cell_length_b       9.7325
_cell_length_c       8.2154
_cell_angle_alpha    90
_cell_angle_beta     90
_cell_angle_gamma    90

_symmetry_space_group_name_H-M    "P 1"
_symmetry_int_tables_number       1

loop_
  _symmetry_equiv_pos_as_xyz
  'x, y, z'

loop_
  _atom_site_label
  _atom_site_occupancy
  _atom_site_fract_x
  _atom_site_fract_y
  _atom_site_fract_z
  _atom_site_thermal_displace_type
  _atom_site_B_iso_or_equiv
  _atom_site_type_symbol
  C1       1.0000 0.08832  0.01257  0.12365  Biso   1.000  C
  H1       1.0000 0.14960  0.01890  0.21340  Biso   1.000  H
  C2       1.0000 0.41168  0.48743  0.12365  Biso   1.000  C
  H2       1.0000 0.35040  0.48110  0.21340  Biso   1.000  H
  C3       1.0000 0.48743  0.08832  0.12365  Biso   1.000  C
  H3       1.0000 0.48110  0.14960  0.21340  Biso   1.000  H
  C4       1.0000 0.01257  0.41168  0.12365  Biso   1.000  C
  H4       1.0000 0.01890  0.35040  0.21340  Biso   1.000  H
  C5       1.0000 0.41168  0.01257  0.87635  Biso   1.000  C
  H5       1.0000 0.35040  0.01890  0.78660  Biso   1.000  H
  C6       1.0000 0.08832  0.48743  0.87635  Biso   1.000  C
  H6       1.0000 0.14960  0.48110  0.78660  Biso   1.000  H
  C7       1.0000 0.01257  0.08832  0.87635  Biso   1.000  C
  H7       1.0000 0.01890  0.14960  0.78660  Biso   1.000  H
  C8       1.0000 0.48743  0.41168  0.87635  Biso   1.000  C
  H8       1.0000 0.48110  0.35040  0.78660  Biso   1.000  H
  C9       1.0000 0.91168  0.98743  0.87635  Biso   1.000  C
  H9       1.0000 0.85040  0.98110  0.78660  Biso   1.000  H
  C10      1.0000 0.58832  0.51257  0.87635  Biso   1.000  C
  H10      1.0000 0.64960  0.51890  0.78660  Biso   1.000  H
  C11      1.0000 0.51257  0.91168  0.87635  Biso   1.000  C
  H11      1.0000 0.51890  0.85040  0.78660  Biso   1.000  H
  C12      1.0000 0.98743  0.58832  0.87635  Biso   1.000  C
  H12      1.0000 0.98110  0.64960  0.78660  Biso   1.000  H
  C13      1.0000 0.58832  0.98743  0.12365  Biso   1.000  C
  H13      1.0000 0.64960  0.98110  0.21340  Biso   1.000  H
  C14      1.0000 0.91168  0.51257  0.12365  Biso   1.000  C
  H14      1.0000 0.85040  0.51890  0.21340  Biso   1.000  H
  C15      1.0000 0.98743  0.91168  0.12365  Biso   1.000  C
  H15      1.0000 0.98110  0.85040  0.21340  Biso   1.000  H
  C16      1.0000 0.51257  0.58832  0.12365  Biso   1.000  C
  H16      1.0000 0.51890  0.64960  0.21340  Biso   1.000  H
  Cu1      1.0000 0.25000  0.25000  0.00000  Biso   1.000  Cu
  Cu2      1.0000 0.75000  0.75000  0.00000  Biso   1.000  Cu
  N1       1.0000 0.10103  0.10103  0.00000  Biso   1.000  N
  N2       1.0000 0.39897  0.39897  0.00000  Biso   1.000  N
  N3       1.0000 0.39897  0.10103  0.00000  Biso   1.000  N
  N4       1.0000 0.10103  0.39897  0.00000  Biso   1.000  N
  N5       1.0000 0.89897  0.89897  0.00000  Biso   1.000  N
  N6       1.0000 0.60103  0.60103  0.00000  Biso   1.000  N
  N7       1.0000 0.60103  0.89897  0.00000  Biso   1.000  N
  N8       1.0000 0.89897  0.60103  0.00000  Biso   1.000  N
