data_image0
_cell_length_a       21.1746
_cell_length_b       25.9524
_cell_length_c       12.2527
_cell_angle_alpha    90
_cell_angle_beta     90
_cell_angle_gamma    90

_symmetry_space_group_name_H-M    "P 1"
_symmetry_int_tables_number       1

loop_
  _symmetry_equiv_pos_as_xyz
  'x, y, z'

loop_
  _atom_site_label
  _atom_site_occupancy
  _atom_site_fract_x
  _atom_site_fract_y
  _atom_site_fract_z
  _atom_site_thermal_displace_type
  _atom_site_B_iso_or_equiv
  _atom_site_type_symbol
  Ag1      1.0000 0.07847  0.03410  0.56118  Biso   1.000  Ag
  Ag2      1.0000 0.96993  0.06661  0.43446  Biso   1.000  Ag
  S1       1.0000 0.08733  0.06981  0.36984  Biso   1.000  S
  S2       1.0000 0.09103  0.93730  0.60957  Biso   1.000  S
  S3       1.0000 0.11720  0.03657  0.14381  Biso   1.000  S
  S4       1.0000 0.06791  0.91072  0.84120  Biso   1.000  S
  C1       1.0000 0.08874  0.01993  0.27600  Biso   1.000  C
  N1       1.0000 0.07276  0.97330  0.28820  Biso   1.000  N
  N2       1.0000 0.97769  0.93839  0.71100  Biso   1.000  N
  C2       1.0000 0.03690  0.93083  0.71520  Biso   1.000  C
  C3       1.0000 0.94680  0.93020  0.81700  Biso   1.000  C
  H1       1.0000 0.90890  0.90980  0.80680  Biso   1.000  H
  H2       1.0000 0.93470  0.96310  0.84780  Biso   1.000  H
  C4       1.0000 0.07560  0.94320  0.18610  Biso   1.000  C
  H3       1.0000 0.03350  0.93950  0.15610  Biso   1.000  H
  H4       1.0000 0.09200  0.90910  0.20130  Biso   1.000  H
  C5       1.0000 0.11770  0.96990  0.10410  Biso   1.000  C
  H5       1.0000 0.10130  0.96580  0.03070  Biso   1.000  H
  H6       1.0000 0.16020  0.95600  0.10680  Biso   1.000  H
  C6       1.0000 0.99080  0.90270  0.89460  Biso   1.000  C
  H7       1.0000 0.98010  0.86640  0.89910  Biso   1.000  H
  H8       1.0000 0.98790  0.91760  0.96710  Biso   1.000  H
  Ag3      1.0000 0.92153  0.96590  0.56118  Biso   1.000  Ag
  Ag4      1.0000 0.03007  0.93339  0.43446  Biso   1.000  Ag
  S5       1.0000 0.91267  0.93019  0.36984  Biso   1.000  S
  S6       1.0000 0.90897  0.06270  0.60957  Biso   1.000  S
  S7       1.0000 0.88280  0.96343  0.14381  Biso   1.000  S
  S8       1.0000 0.93209  0.08928  0.84120  Biso   1.000  S
  C7       1.0000 0.91126  0.98007  0.27600  Biso   1.000  C
  N3       1.0000 0.92724  0.02670  0.28820  Biso   1.000  N
  N4       1.0000 0.02231  0.06161  0.71100  Biso   1.000  N
  C8       1.0000 0.96310  0.06917  0.71520  Biso   1.000  C
  C9       1.0000 0.05320  0.06980  0.81700  Biso   1.000  C
  H9       1.0000 0.09110  0.09020  0.80680  Biso   1.000  H
  H10      1.0000 0.06530  0.03690  0.84780  Biso   1.000  H
  C10      1.0000 0.92440  0.05680  0.18610  Biso   1.000  C
  H11      1.0000 0.96650  0.06050  0.15610  Biso   1.000  H
  H12      1.0000 0.90800  0.09090  0.20130  Biso   1.000  H
  C11      1.0000 0.88230  0.03010  0.10410  Biso   1.000  C
  H13      1.0000 0.89870  0.03420  0.03070  Biso   1.000  H
  H14      1.0000 0.83980  0.04400  0.10680  Biso   1.000  H
  C12      1.0000 0.00920  0.09730  0.89460  Biso   1.000  C
  H15      1.0000 0.01990  0.13360  0.89910  Biso   1.000  H
  H16      1.0000 0.01210  0.08240  0.96710  Biso   1.000  H
  Ag5      1.0000 0.07847  0.53410  0.06118  Biso   1.000  Ag
  Ag6      1.0000 0.96993  0.56661  0.93446  Biso   1.000  Ag
  S9       1.0000 0.08733  0.56981  0.86984  Biso   1.000  S
  S10      1.0000 0.09103  0.43730  0.10957  Biso   1.000  S
  S11      1.0000 0.11720  0.53657  0.64381  Biso   1.000  S
  S12      1.0000 0.06791  0.41072  0.34120  Biso   1.000  S
  C13      1.0000 0.08874  0.51993  0.77600  Biso   1.000  C
  N5       1.0000 0.07276  0.47330  0.78820  Biso   1.000  N
  N6       1.0000 0.97769  0.43839  0.21100  Biso   1.000  N
  C14      1.0000 0.03690  0.43083  0.21520  Biso   1.000  C
  C15      1.0000 0.94680  0.43020  0.31700  Biso   1.000  C
  H17      1.0000 0.90890  0.40980  0.30680  Biso   1.000  H
  H18      1.0000 0.93470  0.46310  0.34780  Biso   1.000  H
  C16      1.0000 0.07560  0.44320  0.68610  Biso   1.000  C
  H19      1.0000 0.03350  0.43950  0.65610  Biso   1.000  H
  H20      1.0000 0.09200  0.40910  0.70130  Biso   1.000  H
  C17      1.0000 0.11770  0.46990  0.60410  Biso   1.000  C
  H21      1.0000 0.10130  0.46580  0.53070  Biso   1.000  H
  H22      1.0000 0.16020  0.45600  0.60680  Biso   1.000  H
  C18      1.0000 0.99080  0.40270  0.39460  Biso   1.000  C
  H23      1.0000 0.98010  0.36640  0.39910  Biso   1.000  H
  H24      1.0000 0.98790  0.41760  0.46710  Biso   1.000  H
  Ag7      1.0000 0.92153  0.46590  0.06118  Biso   1.000  Ag
  Ag8      1.0000 0.03007  0.43339  0.93446  Biso   1.000  Ag
  S13      1.0000 0.91267  0.43019  0.86984  Biso   1.000  S
  S14      1.0000 0.90897  0.56270  0.10957  Biso   1.000  S
  S15      1.0000 0.88280  0.46343  0.64381  Biso   1.000  S
  S16      1.0000 0.93209  0.58928  0.34120  Biso   1.000  S
  C19      1.0000 0.91126  0.48007  0.77600  Biso   1.000  C
  N7       1.0000 0.92724  0.52670  0.78820  Biso   1.000  N
  N8       1.0000 0.02231  0.56161  0.21100  Biso   1.000  N
  C20      1.0000 0.96310  0.56917  0.21520  Biso   1.000  C
  C21      1.0000 0.05320  0.56980  0.31700  Biso   1.000  C
  H25      1.0000 0.09110  0.59020  0.30680  Biso   1.000  H
  H26      1.0000 0.06530  0.53690  0.34780  Biso   1.000  H
  C22      1.0000 0.92440  0.55680  0.68610  Biso   1.000  C
  H27      1.0000 0.96650  0.56050  0.65610  Biso   1.000  H
  H28      1.0000 0.90800  0.59090  0.70130  Biso   1.000  H
  C23      1.0000 0.88230  0.53010  0.60410  Biso   1.000  C
  H29      1.0000 0.89870  0.53420  0.53070  Biso   1.000  H
  H30      1.0000 0.83980  0.54400  0.60680  Biso   1.000  H
  C24      1.0000 0.00920  0.59730  0.39460  Biso   1.000  C
  H31      1.0000 0.01990  0.63360  0.39910  Biso   1.000  H
  H32      1.0000 0.01210  0.58240  0.46710  Biso   1.000  H
  Ag9      1.0000 0.57847  0.03410  0.06118  Biso   1.000  Ag
  Ag10     1.0000 0.46993  0.06661  0.93446  Biso   1.000  Ag
  S17      1.0000 0.58733  0.06981  0.86984  Biso   1.000  S
  S18      1.0000 0.59103  0.93730  0.10957  Biso   1.000  S
  S19      1.0000 0.61720  0.03657  0.64381  Biso   1.000  S
  S20      1.0000 0.56791  0.91072  0.34120  Biso   1.000  S
  C25      1.0000 0.58874  0.01993  0.77600  Biso   1.000  C
  N9       1.0000 0.57276  0.97330  0.78820  Biso   1.000  N
  N10      1.0000 0.47769  0.93839  0.21100  Biso   1.000  N
  C26      1.0000 0.53690  0.93083  0.21520  Biso   1.000  C
  C27      1.0000 0.44680  0.93020  0.31700  Biso   1.000  C
  H33      1.0000 0.40890  0.90980  0.30680  Biso   1.000  H
  H34      1.0000 0.43470  0.96310  0.34780  Biso   1.000  H
  C28      1.0000 0.57560  0.94320  0.68610  Biso   1.000  C
  H35      1.0000 0.53350  0.93950  0.65610  Biso   1.000  H
  H36      1.0000 0.59200  0.90910  0.70130  Biso   1.000  H
  C29      1.0000 0.61770  0.96990  0.60410  Biso   1.000  C
  H37      1.0000 0.60130  0.96580  0.53070  Biso   1.000  H
  H38      1.0000 0.66020  0.95600  0.60680  Biso   1.000  H
  C30      1.0000 0.49080  0.90270  0.39460  Biso   1.000  C
  H39      1.0000 0.48010  0.86640  0.39910  Biso   1.000  H
  H40      1.0000 0.48790  0.91760  0.46710  Biso   1.000  H
  Ag11     1.0000 0.42153  0.96590  0.06118  Biso   1.000  Ag
  Ag12     1.0000 0.53007  0.93339  0.93446  Biso   1.000  Ag
  S21      1.0000 0.41267  0.93019  0.86984  Biso   1.000  S
  S22      1.0000 0.40897  0.06270  0.10957  Biso   1.000  S
  S23      1.0000 0.38280  0.96343  0.64381  Biso   1.000  S
  S24      1.0000 0.43209  0.08928  0.34120  Biso   1.000  S
  C31      1.0000 0.41126  0.98007  0.77600  Biso   1.000  C
  N11      1.0000 0.42724  0.02670  0.78820  Biso   1.000  N
  N12      1.0000 0.52231  0.06161  0.21100  Biso   1.000  N
  C32      1.0000 0.46310  0.06917  0.21520  Biso   1.000  C
  C33      1.0000 0.55320  0.06980  0.31700  Biso   1.000  C
  H41      1.0000 0.59110  0.09020  0.30680  Biso   1.000  H
  H42      1.0000 0.56530  0.03690  0.34780  Biso   1.000  H
  C34      1.0000 0.42440  0.05680  0.68610  Biso   1.000  C
  H43      1.0000 0.46650  0.06050  0.65610  Biso   1.000  H
  H44      1.0000 0.40800  0.09090  0.70130  Biso   1.000  H
  C35      1.0000 0.38230  0.03010  0.60410  Biso   1.000  C
  H45      1.0000 0.39870  0.03420  0.53070  Biso   1.000  H
  H46      1.0000 0.33980  0.04400  0.60680  Biso   1.000  H
  C36      1.0000 0.50920  0.09730  0.39460  Biso   1.000  C
  H47      1.0000 0.51990  0.13360  0.39910  Biso   1.000  H
  H48      1.0000 0.51210  0.08240  0.46710  Biso   1.000  H
  Ag13     1.0000 0.57847  0.53410  0.56118  Biso   1.000  Ag
  Ag14     1.0000 0.46993  0.56661  0.43446  Biso   1.000  Ag
  S25      1.0000 0.58733  0.56981  0.36984  Biso   1.000  S
  S26      1.0000 0.59103  0.43730  0.60957  Biso   1.000  S
  S27      1.0000 0.61720  0.53657  0.14381  Biso   1.000  S
  S28      1.0000 0.56791  0.41072  0.84120  Biso   1.000  S
  C37      1.0000 0.58874  0.51993  0.27600  Biso   1.000  C
  N13      1.0000 0.57276  0.47330  0.28820  Biso   1.000  N
  N14      1.0000 0.47769  0.43839  0.71100  Biso   1.000  N
  C38      1.0000 0.53690  0.43083  0.71520  Biso   1.000  C
  C39      1.0000 0.44680  0.43020  0.81700  Biso   1.000  C
  H49      1.0000 0.40890  0.40980  0.80680  Biso   1.000  H
  H50      1.0000 0.43470  0.46310  0.84780  Biso   1.000  H
  C40      1.0000 0.57560  0.44320  0.18610  Biso   1.000  C
  H51      1.0000 0.53350  0.43950  0.15610  Biso   1.000  H
  H52      1.0000 0.59200  0.40910  0.20130  Biso   1.000  H
  C41      1.0000 0.61770  0.46990  0.10410  Biso   1.000  C
  H53      1.0000 0.60130  0.46580  0.03070  Biso   1.000  H
  H54      1.0000 0.66020  0.45600  0.10680  Biso   1.000  H
  C42      1.0000 0.49080  0.40270  0.89460  Biso   1.000  C
  H55      1.0000 0.48010  0.36640  0.89910  Biso   1.000  H
  H56      1.0000 0.48790  0.41760  0.96710  Biso   1.000  H
  Ag15     1.0000 0.42153  0.46590  0.56118  Biso   1.000  Ag
  Ag16     1.0000 0.53007  0.43339  0.43446  Biso   1.000  Ag
  S29      1.0000 0.41267  0.43019  0.36984  Biso   1.000  S
  S30      1.0000 0.40897  0.56270  0.60957  Biso   1.000  S
  S31      1.0000 0.38280  0.46343  0.14381  Biso   1.000  S
  S32      1.0000 0.43209  0.58928  0.84120  Biso   1.000  S
  C43      1.0000 0.41126  0.48007  0.27600  Biso   1.000  C
  N15      1.0000 0.42724  0.52670  0.28820  Biso   1.000  N
  N16      1.0000 0.52231  0.56161  0.71100  Biso   1.000  N
  C44      1.0000 0.46310  0.56917  0.71520  Biso   1.000  C
  C45      1.0000 0.55320  0.56980  0.81700  Biso   1.000  C
  H57      1.0000 0.59110  0.59020  0.80680  Biso   1.000  H
  H58      1.0000 0.56530  0.53690  0.84780  Biso   1.000  H
  C46      1.0000 0.42440  0.55680  0.18610  Biso   1.000  C
  H59      1.0000 0.46650  0.56050  0.15610  Biso   1.000  H
  H60      1.0000 0.40800  0.59090  0.20130  Biso   1.000  H
  C47      1.0000 0.38230  0.53010  0.10410  Biso   1.000  C
  H61      1.0000 0.39870  0.53420  0.03070  Biso   1.000  H
  H62      1.0000 0.33980  0.54400  0.10680  Biso   1.000  H
  C48      1.0000 0.50920  0.59730  0.89460  Biso   1.000  C
  H63      1.0000 0.51990  0.63360  0.89910  Biso   1.000  H
  H64      1.0000 0.51210  0.58240  0.96710  Biso   1.000  H
  Ag17     1.0000 0.32847  0.21590  0.81118  Biso   1.000  Ag
  Ag18     1.0000 0.21993  0.18339  0.68446  Biso   1.000  Ag
  S33      1.0000 0.33733  0.18019  0.61984  Biso   1.000  S
  S34      1.0000 0.34103  0.31270  0.85957  Biso   1.000  S
  S35      1.0000 0.36720  0.21343  0.39381  Biso   1.000  S
  S36      1.0000 0.31791  0.33928  0.09120  Biso   1.000  S
  C49      1.0000 0.33874  0.23007  0.52600  Biso   1.000  C
  N17      1.0000 0.32276  0.27670  0.53820  Biso   1.000  N
  N18      1.0000 0.22769  0.31161  0.96100  Biso   1.000  N
  C50      1.0000 0.28690  0.31917  0.96520  Biso   1.000  C
  C51      1.0000 0.19680  0.31980  0.06700  Biso   1.000  C
  H65      1.0000 0.15890  0.34020  0.05680  Biso   1.000  H
  H66      1.0000 0.18470  0.28690  0.09780  Biso   1.000  H
  C52      1.0000 0.32560  0.30680  0.43610  Biso   1.000  C
  H67      1.0000 0.28350  0.31050  0.40610  Biso   1.000  H
  H68      1.0000 0.34200  0.34090  0.45130  Biso   1.000  H
  C53      1.0000 0.36770  0.28010  0.35410  Biso   1.000  C
  H69      1.0000 0.35130  0.28420  0.28070  Biso   1.000  H
  H70      1.0000 0.41020  0.29400  0.35680  Biso   1.000  H
  C54      1.0000 0.24080  0.34730  0.14460  Biso   1.000  C
  H71      1.0000 0.23010  0.38360  0.14910  Biso   1.000  H
  H72      1.0000 0.23790  0.33240  0.21710  Biso   1.000  H
  Ag19     1.0000 0.17153  0.28410  0.81118  Biso   1.000  Ag
  Ag20     1.0000 0.28007  0.31661  0.68446  Biso   1.000  Ag
  S37      1.0000 0.16267  0.31981  0.61984  Biso   1.000  S
  S38      1.0000 0.15897  0.18730  0.85957  Biso   1.000  S
  S39      1.0000 0.13280  0.28657  0.39381  Biso   1.000  S
  S40      1.0000 0.18209  0.16072  0.09120  Biso   1.000  S
  C55      1.0000 0.16126  0.26993  0.52600  Biso   1.000  C
  N19      1.0000 0.17724  0.22330  0.53820  Biso   1.000  N
  N20      1.0000 0.27231  0.18839  0.96100  Biso   1.000  N
  C56      1.0000 0.21310  0.18083  0.96520  Biso   1.000  C
  C57      1.0000 0.30320  0.18020  0.06700  Biso   1.000  C
  H73      1.0000 0.34110  0.15980  0.05680  Biso   1.000  H
  H74      1.0000 0.31530  0.21310  0.09780  Biso   1.000  H
  C58      1.0000 0.17440  0.19320  0.43610  Biso   1.000  C
  H75      1.0000 0.21650  0.18950  0.40610  Biso   1.000  H
  H76      1.0000 0.15800  0.15910  0.45130  Biso   1.000  H
  C59      1.0000 0.13230  0.21990  0.35410  Biso   1.000  C
  H77      1.0000 0.14870  0.21580  0.28070  Biso   1.000  H
  H78      1.0000 0.08980  0.20600  0.35680  Biso   1.000  H
  C60      1.0000 0.25920  0.15270  0.14460  Biso   1.000  C
  H79      1.0000 0.26990  0.11640  0.14910  Biso   1.000  H
  H80      1.0000 0.26210  0.16760  0.21710  Biso   1.000  H
  Ag21     1.0000 0.32847  0.71590  0.31118  Biso   1.000  Ag
  Ag22     1.0000 0.21993  0.68339  0.18446  Biso   1.000  Ag
  S41      1.0000 0.33733  0.68019  0.11984  Biso   1.000  S
  S42      1.0000 0.34103  0.81270  0.35957  Biso   1.000  S
  S43      1.0000 0.36720  0.71343  0.89381  Biso   1.000  S
  S44      1.0000 0.31791  0.83928  0.59120  Biso   1.000  S
  C61      1.0000 0.33874  0.73007  0.02600  Biso   1.000  C
  N21      1.0000 0.32276  0.77670  0.03820  Biso   1.000  N
  N22      1.0000 0.22769  0.81161  0.46100  Biso   1.000  N
  C62      1.0000 0.28690  0.81917  0.46520  Biso   1.000  C
  C63      1.0000 0.19680  0.81980  0.56700  Biso   1.000  C
  H81      1.0000 0.15890  0.84020  0.55680  Biso   1.000  H
  H82      1.0000 0.18470  0.78690  0.59780  Biso   1.000  H
  C64      1.0000 0.32560  0.80680  0.93610  Biso   1.000  C
  H83      1.0000 0.28350  0.81050  0.90610  Biso   1.000  H
  H84      1.0000 0.34200  0.84090  0.95130  Biso   1.000  H
  C65      1.0000 0.36770  0.78010  0.85410  Biso   1.000  C
  H85      1.0000 0.35130  0.78420  0.78070  Biso   1.000  H
  H86      1.0000 0.41020  0.79400  0.85680  Biso   1.000  H
  C66      1.0000 0.24080  0.84730  0.64460  Biso   1.000  C
  H87      1.0000 0.23010  0.88360  0.64910  Biso   1.000  H
  H88      1.0000 0.23790  0.83240  0.71710  Biso   1.000  H
  Ag23     1.0000 0.17153  0.78410  0.31118  Biso   1.000  Ag
  Ag24     1.0000 0.28007  0.81661  0.18446  Biso   1.000  Ag
  S45      1.0000 0.16267  0.81981  0.11984  Biso   1.000  S
  S46      1.0000 0.15897  0.68730  0.35957  Biso   1.000  S
  S47      1.0000 0.13280  0.78657  0.89381  Biso   1.000  S
  S48      1.0000 0.18209  0.66072  0.59120  Biso   1.000  S
  C67      1.0000 0.16126  0.76993  0.02600  Biso   1.000  C
  N23      1.0000 0.17724  0.72330  0.03820  Biso   1.000  N
  N24      1.0000 0.27231  0.68839  0.46100  Biso   1.000  N
  C68      1.0000 0.21310  0.68083  0.46520  Biso   1.000  C
  C69      1.0000 0.30320  0.68020  0.56700  Biso   1.000  C
  H89      1.0000 0.34110  0.65980  0.55680  Biso   1.000  H
  H90      1.0000 0.31530  0.71310  0.59780  Biso   1.000  H
  C70      1.0000 0.17440  0.69320  0.93610  Biso   1.000  C
  H91      1.0000 0.21650  0.68950  0.90610  Biso   1.000  H
  H92      1.0000 0.15800  0.65910  0.95130  Biso   1.000  H
  C71      1.0000 0.13230  0.71990  0.85410  Biso   1.000  C
  H93      1.0000 0.14870  0.71580  0.78070  Biso   1.000  H
  H94      1.0000 0.08980  0.70600  0.85680  Biso   1.000  H
  C72      1.0000 0.25920  0.65270  0.64460  Biso   1.000  C
  H95      1.0000 0.26990  0.61640  0.64910  Biso   1.000  H
  H96      1.0000 0.26210  0.66760  0.71710  Biso   1.000  H
  Ag25     1.0000 0.82847  0.21590  0.31118  Biso   1.000  Ag
  Ag26     1.0000 0.71993  0.18339  0.18446  Biso   1.000  Ag
  S49      1.0000 0.83733  0.18019  0.11984  Biso   1.000  S
  S50      1.0000 0.84103  0.31270  0.35957  Biso   1.000  S
  S51      1.0000 0.86720  0.21343  0.89381  Biso   1.000  S
  S52      1.0000 0.81791  0.33928  0.59120  Biso   1.000  S
  C73      1.0000 0.83874  0.23007  0.02600  Biso   1.000  C
  N25      1.0000 0.82276  0.27670  0.03820  Biso   1.000  N
  N26      1.0000 0.72769  0.31161  0.46100  Biso   1.000  N
  C74      1.0000 0.78690  0.31917  0.46520  Biso   1.000  C
  C75      1.0000 0.69680  0.31980  0.56700  Biso   1.000  C
  H97      1.0000 0.65890  0.34020  0.55680  Biso   1.000  H
  H98      1.0000 0.68470  0.28690  0.59780  Biso   1.000  H
  C76      1.0000 0.82560  0.30680  0.93610  Biso   1.000  C
  H99      1.0000 0.78350  0.31050  0.90610  Biso   1.000  H
  H100     1.0000 0.84200  0.34090  0.95130  Biso   1.000  H
  C77      1.0000 0.86770  0.28010  0.85410  Biso   1.000  C
  H101     1.0000 0.85130  0.28420  0.78070  Biso   1.000  H
  H102     1.0000 0.91020  0.29400  0.85680  Biso   1.000  H
  C78      1.0000 0.74080  0.34730  0.64460  Biso   1.000  C
  H103     1.0000 0.73010  0.38360  0.64910  Biso   1.000  H
  H104     1.0000 0.73790  0.33240  0.71710  Biso   1.000  H
  Ag27     1.0000 0.67153  0.28410  0.31118  Biso   1.000  Ag
  Ag28     1.0000 0.78007  0.31661  0.18446  Biso   1.000  Ag
  S53      1.0000 0.66267  0.31981  0.11984  Biso   1.000  S
  S54      1.0000 0.65897  0.18730  0.35957  Biso   1.000  S
  S55      1.0000 0.63280  0.28657  0.89381  Biso   1.000  S
  S56      1.0000 0.68209  0.16072  0.59120  Biso   1.000  S
  C79      1.0000 0.66126  0.26993  0.02600  Biso   1.000  C
  N27      1.0000 0.67724  0.22330  0.03820  Biso   1.000  N
  N28      1.0000 0.77231  0.18839  0.46100  Biso   1.000  N
  C80      1.0000 0.71310  0.18083  0.46520  Biso   1.000  C
  C81      1.0000 0.80320  0.18020  0.56700  Biso   1.000  C
  H105     1.0000 0.84110  0.15980  0.55680  Biso   1.000  H
  H106     1.0000 0.81530  0.21310  0.59780  Biso   1.000  H
  C82      1.0000 0.67440  0.19320  0.93610  Biso   1.000  C
  H107     1.0000 0.71650  0.18950  0.90610  Biso   1.000  H
  H108     1.0000 0.65800  0.15910  0.95130  Biso   1.000  H
  C83      1.0000 0.63230  0.21990  0.85410  Biso   1.000  C
  H109     1.0000 0.64870  0.21580  0.78070  Biso   1.000  H
  H110     1.0000 0.58980  0.20600  0.85680  Biso   1.000  H
  C84      1.0000 0.75920  0.15270  0.64460  Biso   1.000  C
  H111     1.0000 0.76990  0.11640  0.64910  Biso   1.000  H
  H112     1.0000 0.76210  0.16760  0.71710  Biso   1.000  H
  Ag29     1.0000 0.82847  0.71590  0.81118  Biso   1.000  Ag
  Ag30     1.0000 0.71993  0.68339  0.68446  Biso   1.000  Ag
  S57      1.0000 0.83733  0.68019  0.61984  Biso   1.000  S
  S58      1.0000 0.84103  0.81270  0.85957  Biso   1.000  S
  S59      1.0000 0.86720  0.71343  0.39381  Biso   1.000  S
  S60      1.0000 0.81791  0.83928  0.09120  Biso   1.000  S
  C85      1.0000 0.83874  0.73007  0.52600  Biso   1.000  C
  N29      1.0000 0.82276  0.77670  0.53820  Biso   1.000  N
  N30      1.0000 0.72769  0.81161  0.96100  Biso   1.000  N
  C86      1.0000 0.78690  0.81917  0.96520  Biso   1.000  C
  C87      1.0000 0.69680  0.81980  0.06700  Biso   1.000  C
  H113     1.0000 0.65890  0.84020  0.05680  Biso   1.000  H
  H114     1.0000 0.68470  0.78690  0.09780  Biso   1.000  H
  C88      1.0000 0.82560  0.80680  0.43610  Biso   1.000  C
  H115     1.0000 0.78350  0.81050  0.40610  Biso   1.000  H
  H116     1.0000 0.84200  0.84090  0.45130  Biso   1.000  H
  C89      1.0000 0.86770  0.78010  0.35410  Biso   1.000  C
  H117     1.0000 0.85130  0.78420  0.28070  Biso   1.000  H
  H118     1.0000 0.91020  0.79400  0.35680  Biso   1.000  H
  C90      1.0000 0.74080  0.84730  0.14460  Biso   1.000  C
  H119     1.0000 0.73010  0.88360  0.14910  Biso   1.000  H
  H120     1.0000 0.73790  0.83240  0.21710  Biso   1.000  H
  Ag31     1.0000 0.67153  0.78410  0.81118  Biso   1.000  Ag
  Ag32     1.0000 0.78007  0.81661  0.68446  Biso   1.000  Ag
  S61      1.0000 0.66267  0.81981  0.61984  Biso   1.000  S
  S62      1.0000 0.65897  0.68730  0.85957  Biso   1.000  S
  S63      1.0000 0.63280  0.78657  0.39381  Biso   1.000  S
  S64      1.0000 0.68209  0.66072  0.09120  Biso   1.000  S
  C91      1.0000 0.66126  0.76993  0.52600  Biso   1.000  C
  N31      1.0000 0.67724  0.72330  0.53820  Biso   1.000  N
  N32      1.0000 0.77231  0.68839  0.96100  Biso   1.000  N
  C92      1.0000 0.71310  0.68083  0.96520  Biso   1.000  C
  C93      1.0000 0.80320  0.68020  0.06700  Biso   1.000  C
  H121     1.0000 0.84110  0.65980  0.05680  Biso   1.000  H
  H122     1.0000 0.81530  0.71310  0.09780  Biso   1.000  H
  C94      1.0000 0.67440  0.69320  0.43610  Biso   1.000  C
  H123     1.0000 0.71650  0.68950  0.40610  Biso   1.000  H
  H124     1.0000 0.65800  0.65910  0.45130  Biso   1.000  H
  C95      1.0000 0.63230  0.71990  0.35410  Biso   1.000  C
  H125     1.0000 0.64870  0.71580  0.28070  Biso   1.000  H
  H126     1.0000 0.58980  0.70600  0.35680  Biso   1.000  H
  C96      1.0000 0.75920  0.65270  0.14460  Biso   1.000  C
  H127     1.0000 0.76990  0.61640  0.14910  Biso   1.000  H
  H128     1.0000 0.76210  0.66760  0.21710  Biso   1.000  H
