data_image0
_cell_length_a       8.0165
_cell_length_b       12.532
_cell_length_c       13.892
_cell_angle_alpha    90
_cell_angle_beta     96.64
_cell_angle_gamma    90

_symmetry_space_group_name_H-M    "P 1"
_symmetry_int_tables_number       1

loop_
  _symmetry_equiv_pos_as_xyz
  'x, y, z'

loop_
  _atom_site_label
  _atom_site_occupancy
  _atom_site_fract_x
  _atom_site_fract_y
  _atom_site_fract_z
  _atom_site_thermal_displace_type
  _atom_site_B_iso_or_equiv
  _atom_site_type_symbol
  Ag1      1.0000 0.61491  0.07814  0.44358  Biso   1.000  Ag
  C1       1.0000 0.75570  0.98160  0.64410  Biso   1.000  C
  C2       1.0000 0.89450  0.96890  0.72540  Biso   1.000  C
  C3       1.0000 0.05900  0.01170  0.71960  Biso   1.000  C
  C4       1.0000 0.10820  0.06030  0.63500  Biso   1.000  C
  H1       1.0000 0.03230  0.06320  0.57910  Biso   1.000  H
  C5       1.0000 0.26530  0.10300  0.63420  Biso   1.000  C
  H2       1.0000 0.29440  0.13570  0.57840  Biso   1.000  H
  C6       1.0000 0.38370  0.09740  0.71810  Biso   1.000  C
  H3       1.0000 0.48890  0.12860  0.71810  Biso   1.000  H
  C7       1.0000 0.34300  0.04620  0.79860  Biso   1.000  C
  H4       1.0000 0.42320  0.03950  0.85230  Biso   1.000  H
  C8       1.0000 0.17940  0.00270  0.80200  Biso   1.000  C
  C9       1.0000 0.13790  0.95120  0.88670  Biso   1.000  C
  H5       1.0000 0.21740  0.94600  0.94080  Biso   1.000  H
  C10      1.0000 0.98000  0.90900  0.88890  Biso   1.000  C
  H6       1.0000 0.95320  0.87450  0.94440  Biso   1.000  H
  C11      1.0000 0.86010  0.91780  0.80820  Biso   1.000  C
  H7       1.0000 0.75420  0.88830  0.81050  Biso   1.000  H
  O1       1.0000 0.73850  0.06960  0.60020  Biso   1.000  O
  O2       1.0000 0.65710  0.90420  0.62540  Biso   1.000  O
  Ag2      1.0000 0.38509  0.92186  0.55642  Biso   1.000  Ag
  C12      1.0000 0.24430  0.01840  0.35590  Biso   1.000  C
  C13      1.0000 0.10550  0.03110  0.27460  Biso   1.000  C
  C14      1.0000 0.94100  0.98830  0.28040  Biso   1.000  C
  C15      1.0000 0.89180  0.93970  0.36500  Biso   1.000  C
  H8       1.0000 0.96770  0.93680  0.42090  Biso   1.000  H
  C16      1.0000 0.73470  0.89700  0.36580  Biso   1.000  C
  H9       1.0000 0.70560  0.86430  0.42160  Biso   1.000  H
  C17      1.0000 0.61630  0.90260  0.28190  Biso   1.000  C
  H10      1.0000 0.51110  0.87140  0.28190  Biso   1.000  H
  C18      1.0000 0.65700  0.95380  0.20140  Biso   1.000  C
  H11      1.0000 0.57680  0.96050  0.14770  Biso   1.000  H
  C19      1.0000 0.82060  0.99730  0.19800  Biso   1.000  C
  C20      1.0000 0.86210  0.04880  0.11330  Biso   1.000  C
  H12      1.0000 0.78260  0.05400  0.05920  Biso   1.000  H
  C21      1.0000 0.02000  0.09100  0.11110  Biso   1.000  C
  H13      1.0000 0.04680  0.12550  0.05560  Biso   1.000  H
  C22      1.0000 0.13990  0.08220  0.19180  Biso   1.000  C
  H14      1.0000 0.24580  0.11170  0.18950  Biso   1.000  H
  O3       1.0000 0.26150  0.93040  0.39980  Biso   1.000  O
  O4       1.0000 0.34290  0.09580  0.37460  Biso   1.000  O
  Ag3      1.0000 0.38509  0.57814  0.05642  Biso   1.000  Ag
  C23      1.0000 0.24430  0.48160  0.85590  Biso   1.000  C
  C24      1.0000 0.10550  0.46890  0.77460  Biso   1.000  C
  C25      1.0000 0.94100  0.51170  0.78040  Biso   1.000  C
  C26      1.0000 0.89180  0.56030  0.86500  Biso   1.000  C
  H15      1.0000 0.96770  0.56320  0.92090  Biso   1.000  H
  C27      1.0000 0.73470  0.60300  0.86580  Biso   1.000  C
  H16      1.0000 0.70560  0.63570  0.92160  Biso   1.000  H
  C28      1.0000 0.61630  0.59740  0.78190  Biso   1.000  C
  H17      1.0000 0.51110  0.62860  0.78190  Biso   1.000  H
  C29      1.0000 0.65700  0.54620  0.70140  Biso   1.000  C
  H18      1.0000 0.57680  0.53950  0.64770  Biso   1.000  H
  C30      1.0000 0.82060  0.50270  0.69800  Biso   1.000  C
  C31      1.0000 0.86210  0.45120  0.61330  Biso   1.000  C
  H19      1.0000 0.78260  0.44600  0.55920  Biso   1.000  H
  C32      1.0000 0.02000  0.40900  0.61110  Biso   1.000  C
  H20      1.0000 0.04680  0.37450  0.55560  Biso   1.000  H
  C33      1.0000 0.13990  0.41780  0.69180  Biso   1.000  C
  H21      1.0000 0.24580  0.38830  0.68950  Biso   1.000  H
  O5       1.0000 0.26150  0.56960  0.89980  Biso   1.000  O
  O6       1.0000 0.34290  0.40420  0.87460  Biso   1.000  O
  Ag4      1.0000 0.61491  0.42186  0.94358  Biso   1.000  Ag
  C34      1.0000 0.75570  0.51840  0.14410  Biso   1.000  C
  C35      1.0000 0.89450  0.53110  0.22540  Biso   1.000  C
  C36      1.0000 0.05900  0.48830  0.21960  Biso   1.000  C
  C37      1.0000 0.10820  0.43970  0.13500  Biso   1.000  C
  H22      1.0000 0.03230  0.43680  0.07910  Biso   1.000  H
  C38      1.0000 0.26530  0.39700  0.13420  Biso   1.000  C
  H23      1.0000 0.29440  0.36430  0.07840  Biso   1.000  H
  C39      1.0000 0.38370  0.40260  0.21810  Biso   1.000  C
  H24      1.0000 0.48890  0.37140  0.21810  Biso   1.000  H
  C40      1.0000 0.34300  0.45380  0.29860  Biso   1.000  C
  H25      1.0000 0.42320  0.46050  0.35230  Biso   1.000  H
  C41      1.0000 0.17940  0.49730  0.30200  Biso   1.000  C
  C42      1.0000 0.13790  0.54880  0.38670  Biso   1.000  C
  H26      1.0000 0.21740  0.55400  0.44080  Biso   1.000  H
  C43      1.0000 0.98000  0.59100  0.38890  Biso   1.000  C
  H27      1.0000 0.95320  0.62550  0.44440  Biso   1.000  H
  C44      1.0000 0.86010  0.58220  0.30820  Biso   1.000  C
  H28      1.0000 0.75420  0.61170  0.31050  Biso   1.000  H
  O7       1.0000 0.73850  0.43040  0.10020  Biso   1.000  O
  O8       1.0000 0.65710  0.59580  0.12540  Biso   1.000  O
