data_image0
_cell_length_a       11.9906
_cell_length_b       17.3689
_cell_length_c       16.961
_cell_angle_alpha    90
_cell_angle_beta     101.982
_cell_angle_gamma    90

_symmetry_space_group_name_H-M    "P 1"
_symmetry_int_tables_number       1

loop_
  _symmetry_equiv_pos_as_xyz
  'x, y, z'

loop_
  _atom_site_label
  _atom_site_occupancy
  _atom_site_fract_x
  _atom_site_fract_y
  _atom_site_fract_z
  _atom_site_thermal_displace_type
  _atom_site_B_iso_or_equiv
  _atom_site_type_symbol
  Ag1      1.0000 0.82560  0.22080  0.96520  Biso   1.000  Ag
  Ag2      1.0000 0.98630  0.29410  0.63380  Biso   1.000  Ag
  Ag3      1.0000 0.65020  0.25260  0.29900  Biso   1.000  Ag
  N1       1.0000 0.68340  0.18180  0.03660  Biso   1.000  N
  N2       1.0000 0.48200  0.20320  0.03560  Biso   1.000  N
  N3       1.0000 0.61900  0.19590  0.16410  Biso   1.000  N
  N4       1.0000 0.56860  0.08040  0.08110  Biso   1.000  N
  C1       1.0000 0.57600  0.21850  0.99630  Biso   1.000  C
  C2       1.0000 0.66180  0.09830  0.03990  Biso   1.000  C
  C3       1.0000 0.51300  0.23290  0.11770  Biso   1.000  C
  C4       1.0000 0.46600  0.11960  0.03920  Biso   1.000  C
  C5       1.0000 0.71030  0.21070  0.11980  Biso   1.000  C
  C6       1.0000 0.60010  0.11270  0.16240  Biso   1.000  C
  N5       1.0000 0.81470  0.18690  0.82760  Biso   1.000  N
  N6       1.0000 0.87870  0.21100  0.70120  Biso   1.000  N
  N7       1.0000 0.82310  0.08120  0.73380  Biso   1.000  N
  N8       1.0000 0.67620  0.18050  0.69810  Biso   1.000  N
  C7       1.0000 0.89120  0.23050  0.78660  Biso   1.000  C
  C8       1.0000 0.83710  0.10400  0.81840  Biso   1.000  C
  C9       1.0000 0.70620  0.09830  0.69300  Biso   1.000  C
  C10      1.0000 0.75780  0.22430  0.66090  Biso   1.000  C
  C11      1.0000 0.69580  0.20190  0.78420  Biso   1.000  C
  C12      1.0000 0.90030  0.12680  0.69600  Biso   1.000  C
  N9       1.0000 0.96150  0.32120  0.49610  Biso   1.000  N
  N10      1.0000 0.02230  0.31560  0.36590  Biso   1.000  N
  N11      1.0000 0.92410  0.42980  0.40320  Biso   1.000  N
  N12      1.0000 0.81870  0.31060  0.36900  Biso   1.000  N
  C13      1.0000 0.04900  0.29480  0.45270  Biso   1.000  C
  C14      1.0000 0.84730  0.28830  0.45400  Biso   1.000  C
  C15      1.0000 0.90860  0.28460  0.32810  Biso   1.000  C
  C16      1.0000 0.95250  0.40650  0.48660  Biso   1.000  C
  C17      1.0000 0.01270  0.40170  0.36270  Biso   1.000  C
  C18      1.0000 0.81490  0.39580  0.36550  Biso   1.000  C
  H1       1.0000 0.58770  0.27370  0.99480  Biso   1.000  H
  H2       1.0000 0.55600  0.20030  0.94110  Biso   1.000  H
  H3       1.0000 0.64300  0.07810  0.98540  Biso   1.000  H
  H4       1.0000 0.73080  0.07290  0.06780  Biso   1.000  H
  H5       1.0000 0.45090  0.22360  0.14510  Biso   1.000  H
  H6       1.0000 0.52460  0.28810  0.11590  Biso   1.000  H
  H7       1.0000 0.40430  0.10900  0.06670  Biso   1.000  H
  H8       1.0000 0.44430  0.09950  0.98480  Biso   1.000  H
  H9       1.0000 0.72380  0.26570  0.11880  Biso   1.000  H
  H10      1.0000 0.78000  0.18650  0.14820  Biso   1.000  H
  H11      1.0000 0.54020  0.10120  0.19110  Biso   1.000  H
  H12      1.0000 0.66910  0.08760  0.19070  Biso   1.000  H
  H13      1.0000 0.87630  0.28500  0.79120  Biso   1.000  H
  H14      1.0000 0.96940  0.22090  0.81390  Biso   1.000  H
  H15      1.0000 0.91420  0.09220  0.84640  Biso   1.000  H
  H16      1.0000 0.78520  0.07410  0.84320  Biso   1.000  H
  H17      1.0000 0.65440  0.06730  0.71670  Biso   1.000  H
  H18      1.0000 0.69620  0.08380  0.63670  Biso   1.000  H
  H19      1.0000 0.74100  0.27880  0.66310  Biso   1.000  H
  H20      1.0000 0.74750  0.20980  0.60460  Biso   1.000  H
  H21      1.0000 0.64380  0.17300  0.80980  Biso   1.000  H
  H22      1.0000 0.67900  0.25620  0.78850  Biso   1.000  H
  H23      1.0000 0.89050  0.11210  0.63980  Biso   1.000  H
  H24      1.0000 0.97840  0.11570  0.72230  Biso   1.000  H
  H25      1.0000 0.12180  0.31730  0.47770  Biso   1.000  H
  H26      1.0000 0.05630  0.23930  0.45770  Biso   1.000  H
  H27      1.0000 0.78830  0.30650  0.48080  Biso   1.000  H
  H28      1.0000 0.84990  0.23260  0.45800  Biso   1.000  H
  H29      1.0000 0.91170  0.22880  0.32920  Biso   1.000  H
  H30      1.0000 0.88960  0.30060  0.27210  Biso   1.000  H
  H31      1.0000 0.02450  0.42970  0.51210  Biso   1.000  H
  H32      1.0000 0.89450  0.42540  0.51390  Biso   1.000  H
  H33      1.0000 0.99530  0.41820  0.30690  Biso   1.000  H
  H34      1.0000 0.08540  0.42420  0.38820  Biso   1.000  H
  H35      1.0000 0.75650  0.41430  0.39280  Biso   1.000  H
  H36      1.0000 0.79460  0.41220  0.30970  Biso   1.000  H
  Ag4      1.0000 0.32560  0.27920  0.96520  Biso   1.000  Ag
  Ag5      1.0000 0.48630  0.20590  0.63380  Biso   1.000  Ag
  Ag6      1.0000 0.15020  0.24740  0.29900  Biso   1.000  Ag
  N13      1.0000 0.18340  0.31820  0.03660  Biso   1.000  N
  N14      1.0000 0.98200  0.29680  0.03560  Biso   1.000  N
  N15      1.0000 0.11900  0.30410  0.16410  Biso   1.000  N
  N16      1.0000 0.06860  0.41960  0.08110  Biso   1.000  N
  C19      1.0000 0.07600  0.28150  0.99630  Biso   1.000  C
  C20      1.0000 0.16180  0.40170  0.03990  Biso   1.000  C
  C21      1.0000 0.01300  0.26710  0.11770  Biso   1.000  C
  C22      1.0000 0.96600  0.38040  0.03920  Biso   1.000  C
  C23      1.0000 0.21030  0.28930  0.11980  Biso   1.000  C
  C24      1.0000 0.10010  0.38730  0.16240  Biso   1.000  C
  N17      1.0000 0.31470  0.31310  0.82760  Biso   1.000  N
  N18      1.0000 0.37870  0.28900  0.70120  Biso   1.000  N
  N19      1.0000 0.32310  0.41880  0.73380  Biso   1.000  N
  N20      1.0000 0.17620  0.31950  0.69810  Biso   1.000  N
  C25      1.0000 0.39120  0.26950  0.78660  Biso   1.000  C
  C26      1.0000 0.33710  0.39600  0.81840  Biso   1.000  C
  C27      1.0000 0.20620  0.40170  0.69300  Biso   1.000  C
  C28      1.0000 0.25780  0.27570  0.66090  Biso   1.000  C
  C29      1.0000 0.19580  0.29810  0.78420  Biso   1.000  C
  C30      1.0000 0.40030  0.37320  0.69600  Biso   1.000  C
  N21      1.0000 0.46150  0.17880  0.49610  Biso   1.000  N
  N22      1.0000 0.52230  0.18440  0.36590  Biso   1.000  N
  N23      1.0000 0.42410  0.07020  0.40320  Biso   1.000  N
  N24      1.0000 0.31870  0.18940  0.36900  Biso   1.000  N
  C31      1.0000 0.54900  0.20520  0.45270  Biso   1.000  C
  C32      1.0000 0.34730  0.21170  0.45400  Biso   1.000  C
  C33      1.0000 0.40860  0.21540  0.32810  Biso   1.000  C
  C34      1.0000 0.45250  0.09350  0.48660  Biso   1.000  C
  C35      1.0000 0.51270  0.09830  0.36270  Biso   1.000  C
  C36      1.0000 0.31490  0.10420  0.36550  Biso   1.000  C
  H37      1.0000 0.08770  0.22630  0.99480  Biso   1.000  H
  H38      1.0000 0.05600  0.29970  0.94110  Biso   1.000  H
  H39      1.0000 0.14300  0.42190  0.98540  Biso   1.000  H
  H40      1.0000 0.23080  0.42710  0.06780  Biso   1.000  H
  H41      1.0000 0.95090  0.27640  0.14510  Biso   1.000  H
  H42      1.0000 0.02460  0.21190  0.11590  Biso   1.000  H
  H43      1.0000 0.90430  0.39100  0.06670  Biso   1.000  H
  H44      1.0000 0.94430  0.40050  0.98480  Biso   1.000  H
  H45      1.0000 0.22380  0.23430  0.11880  Biso   1.000  H
  H46      1.0000 0.28000  0.31350  0.14820  Biso   1.000  H
  H47      1.0000 0.04020  0.39880  0.19110  Biso   1.000  H
  H48      1.0000 0.16910  0.41240  0.19070  Biso   1.000  H
  H49      1.0000 0.37630  0.21500  0.79120  Biso   1.000  H
  H50      1.0000 0.46940  0.27910  0.81390  Biso   1.000  H
  H51      1.0000 0.41420  0.40780  0.84640  Biso   1.000  H
  H52      1.0000 0.28520  0.42590  0.84320  Biso   1.000  H
  H53      1.0000 0.15440  0.43270  0.71670  Biso   1.000  H
  H54      1.0000 0.19620  0.41620  0.63670  Biso   1.000  H
  H55      1.0000 0.24100  0.22120  0.66310  Biso   1.000  H
  H56      1.0000 0.24750  0.29020  0.60460  Biso   1.000  H
  H57      1.0000 0.14380  0.32700  0.80980  Biso   1.000  H
  H58      1.0000 0.17900  0.24380  0.78850  Biso   1.000  H
  H59      1.0000 0.39050  0.38790  0.63980  Biso   1.000  H
  H60      1.0000 0.47840  0.38430  0.72230  Biso   1.000  H
  H61      1.0000 0.62180  0.18270  0.47770  Biso   1.000  H
  H62      1.0000 0.55630  0.26070  0.45770  Biso   1.000  H
  H63      1.0000 0.28830  0.19350  0.48080  Biso   1.000  H
  H64      1.0000 0.34990  0.26740  0.45800  Biso   1.000  H
  H65      1.0000 0.41170  0.27120  0.32920  Biso   1.000  H
  H66      1.0000 0.38960  0.19940  0.27210  Biso   1.000  H
  H67      1.0000 0.52450  0.07030  0.51210  Biso   1.000  H
  H68      1.0000 0.39450  0.07460  0.51390  Biso   1.000  H
  H69      1.0000 0.49530  0.08180  0.30690  Biso   1.000  H
  H70      1.0000 0.58540  0.07580  0.38820  Biso   1.000  H
  H71      1.0000 0.25650  0.08570  0.39280  Biso   1.000  H
  H72      1.0000 0.29460  0.08780  0.30970  Biso   1.000  H
  Ag7      1.0000 0.67440  0.72080  0.03480  Biso   1.000  Ag
  Ag8      1.0000 0.51370  0.79410  0.36620  Biso   1.000  Ag
  Ag9      1.0000 0.84980  0.75260  0.70100  Biso   1.000  Ag
  N25      1.0000 0.81660  0.68180  0.96340  Biso   1.000  N
  N26      1.0000 0.01800  0.70320  0.96440  Biso   1.000  N
  N27      1.0000 0.88100  0.69590  0.83590  Biso   1.000  N
  N28      1.0000 0.93140  0.58040  0.91890  Biso   1.000  N
  C37      1.0000 0.92400  0.71850  0.00370  Biso   1.000  C
  C38      1.0000 0.83820  0.59830  0.96010  Biso   1.000  C
  C39      1.0000 0.98700  0.73290  0.88230  Biso   1.000  C
  C40      1.0000 0.03400  0.61960  0.96080  Biso   1.000  C
  C41      1.0000 0.78970  0.71070  0.88020  Biso   1.000  C
  C42      1.0000 0.89990  0.61270  0.83760  Biso   1.000  C
  N29      1.0000 0.68530  0.68690  0.17240  Biso   1.000  N
  N30      1.0000 0.62130  0.71100  0.29880  Biso   1.000  N
  N31      1.0000 0.67690  0.58120  0.26620  Biso   1.000  N
  N32      1.0000 0.82380  0.68050  0.30190  Biso   1.000  N
  C43      1.0000 0.60880  0.73050  0.21340  Biso   1.000  C
  C44      1.0000 0.66290  0.60400  0.18160  Biso   1.000  C
  C45      1.0000 0.79380  0.59830  0.30700  Biso   1.000  C
  C46      1.0000 0.74220  0.72430  0.33910  Biso   1.000  C
  C47      1.0000 0.80420  0.70190  0.21580  Biso   1.000  C
  C48      1.0000 0.59970  0.62680  0.30400  Biso   1.000  C
  N33      1.0000 0.53850  0.82120  0.50390  Biso   1.000  N
  N34      1.0000 0.47770  0.81560  0.63410  Biso   1.000  N
  N35      1.0000 0.57590  0.92980  0.59680  Biso   1.000  N
  N36      1.0000 0.68130  0.81060  0.63100  Biso   1.000  N
  C49      1.0000 0.45100  0.79480  0.54730  Biso   1.000  C
  C50      1.0000 0.65270  0.78830  0.54600  Biso   1.000  C
  C51      1.0000 0.59140  0.78460  0.67190  Biso   1.000  C
  C52      1.0000 0.54750  0.90650  0.51340  Biso   1.000  C
  C53      1.0000 0.48730  0.90170  0.63730  Biso   1.000  C
  C54      1.0000 0.68510  0.89580  0.63450  Biso   1.000  C
  H73      1.0000 0.91230  0.77370  0.00520  Biso   1.000  H
  H74      1.0000 0.94400  0.70030  0.05890  Biso   1.000  H
  H75      1.0000 0.85700  0.57810  0.01460  Biso   1.000  H
  H76      1.0000 0.76920  0.57290  0.93220  Biso   1.000  H
  H77      1.0000 0.04910  0.72360  0.85490  Biso   1.000  H
  H78      1.0000 0.97540  0.78810  0.88410  Biso   1.000  H
  H79      1.0000 0.09570  0.60900  0.93330  Biso   1.000  H
  H80      1.0000 0.05570  0.59950  0.01520  Biso   1.000  H
  H81      1.0000 0.77620  0.76570  0.88120  Biso   1.000  H
  H82      1.0000 0.72000  0.68650  0.85180  Biso   1.000  H
  H83      1.0000 0.95980  0.60120  0.80890  Biso   1.000  H
  H84      1.0000 0.83090  0.58760  0.80930  Biso   1.000  H
  H85      1.0000 0.62370  0.78500  0.20880  Biso   1.000  H
  H86      1.0000 0.53060  0.72090  0.18610  Biso   1.000  H
  H87      1.0000 0.58580  0.59220  0.15360  Biso   1.000  H
  H88      1.0000 0.71480  0.57410  0.15680  Biso   1.000  H
  H89      1.0000 0.84560  0.56730  0.28330  Biso   1.000  H
  H90      1.0000 0.80380  0.58380  0.36330  Biso   1.000  H
  H91      1.0000 0.75900  0.77880  0.33690  Biso   1.000  H
  H92      1.0000 0.75250  0.70980  0.39540  Biso   1.000  H
  H93      1.0000 0.85620  0.67300  0.19020  Biso   1.000  H
  H94      1.0000 0.82100  0.75620  0.21150  Biso   1.000  H
  H95      1.0000 0.60950  0.61210  0.36020  Biso   1.000  H
  H96      1.0000 0.52160  0.61570  0.27770  Biso   1.000  H
  H97      1.0000 0.37820  0.81730  0.52230  Biso   1.000  H
  H98      1.0000 0.44370  0.73930  0.54230  Biso   1.000  H
  H99      1.0000 0.71170  0.80650  0.51920  Biso   1.000  H
  H100     1.0000 0.65010  0.73260  0.54200  Biso   1.000  H
  H101     1.0000 0.58830  0.72880  0.67080  Biso   1.000  H
  H102     1.0000 0.61040  0.80060  0.72790  Biso   1.000  H
  H103     1.0000 0.47550  0.92970  0.48790  Biso   1.000  H
  H104     1.0000 0.60550  0.92540  0.48610  Biso   1.000  H
  H105     1.0000 0.50470  0.91820  0.69310  Biso   1.000  H
  H106     1.0000 0.41460  0.92420  0.61180  Biso   1.000  H
  H107     1.0000 0.74350  0.91430  0.60720  Biso   1.000  H
  H108     1.0000 0.70540  0.91220  0.69030  Biso   1.000  H
  Ag10     1.0000 0.17440  0.77920  0.03480  Biso   1.000  Ag
  Ag11     1.0000 0.01370  0.70590  0.36620  Biso   1.000  Ag
  Ag12     1.0000 0.34980  0.74740  0.70100  Biso   1.000  Ag
  N37      1.0000 0.31660  0.81820  0.96340  Biso   1.000  N
  N38      1.0000 0.51800  0.79680  0.96440  Biso   1.000  N
  N39      1.0000 0.38100  0.80410  0.83590  Biso   1.000  N
  N40      1.0000 0.43140  0.91960  0.91890  Biso   1.000  N
  C55      1.0000 0.42400  0.78150  0.00370  Biso   1.000  C
  C56      1.0000 0.33820  0.90170  0.96010  Biso   1.000  C
  C57      1.0000 0.48700  0.76710  0.88230  Biso   1.000  C
  C58      1.0000 0.53400  0.88040  0.96080  Biso   1.000  C
  C59      1.0000 0.28970  0.78930  0.88020  Biso   1.000  C
  C60      1.0000 0.39990  0.88730  0.83760  Biso   1.000  C
  N41      1.0000 0.18530  0.81310  0.17240  Biso   1.000  N
  N42      1.0000 0.12130  0.78900  0.29880  Biso   1.000  N
  N43      1.0000 0.17690  0.91880  0.26620  Biso   1.000  N
  N44      1.0000 0.32380  0.81950  0.30190  Biso   1.000  N
  C61      1.0000 0.10880  0.76950  0.21340  Biso   1.000  C
  C62      1.0000 0.16290  0.89600  0.18160  Biso   1.000  C
  C63      1.0000 0.29380  0.90170  0.30700  Biso   1.000  C
  C64      1.0000 0.24220  0.77570  0.33910  Biso   1.000  C
  C65      1.0000 0.30420  0.79810  0.21580  Biso   1.000  C
  C66      1.0000 0.09970  0.87320  0.30400  Biso   1.000  C
  N45      1.0000 0.03850  0.67880  0.50390  Biso   1.000  N
  N46      1.0000 0.97770  0.68440  0.63410  Biso   1.000  N
  N47      1.0000 0.07590  0.57020  0.59680  Biso   1.000  N
  N48      1.0000 0.18130  0.68940  0.63100  Biso   1.000  N
  C67      1.0000 0.95100  0.70520  0.54730  Biso   1.000  C
  C68      1.0000 0.15270  0.71170  0.54600  Biso   1.000  C
  C69      1.0000 0.09140  0.71540  0.67190  Biso   1.000  C
  C70      1.0000 0.04750  0.59350  0.51340  Biso   1.000  C
  C71      1.0000 0.98730  0.59830  0.63730  Biso   1.000  C
  C72      1.0000 0.18510  0.60420  0.63450  Biso   1.000  C
  H109     1.0000 0.41230  0.72630  0.00520  Biso   1.000  H
  H110     1.0000 0.44400  0.79970  0.05890  Biso   1.000  H
  H111     1.0000 0.35700  0.92190  0.01460  Biso   1.000  H
  H112     1.0000 0.26920  0.92710  0.93220  Biso   1.000  H
  H113     1.0000 0.54910  0.77640  0.85490  Biso   1.000  H
  H114     1.0000 0.47540  0.71190  0.88410  Biso   1.000  H
  H115     1.0000 0.59570  0.89100  0.93330  Biso   1.000  H
  H116     1.0000 0.55570  0.90050  0.01520  Biso   1.000  H
  H117     1.0000 0.27620  0.73430  0.88120  Biso   1.000  H
  H118     1.0000 0.22000  0.81350  0.85180  Biso   1.000  H
  H119     1.0000 0.45980  0.89880  0.80890  Biso   1.000  H
  H120     1.0000 0.33090  0.91240  0.80930  Biso   1.000  H
  H121     1.0000 0.12370  0.71500  0.20880  Biso   1.000  H
  H122     1.0000 0.03060  0.77910  0.18610  Biso   1.000  H
  H123     1.0000 0.08580  0.90780  0.15360  Biso   1.000  H
  H124     1.0000 0.21480  0.92590  0.15680  Biso   1.000  H
  H125     1.0000 0.34560  0.93270  0.28330  Biso   1.000  H
  H126     1.0000 0.30380  0.91620  0.36330  Biso   1.000  H
  H127     1.0000 0.25900  0.72120  0.33690  Biso   1.000  H
  H128     1.0000 0.25250  0.79020  0.39540  Biso   1.000  H
  H129     1.0000 0.35620  0.82700  0.19020  Biso   1.000  H
  H130     1.0000 0.32100  0.74380  0.21150  Biso   1.000  H
  H131     1.0000 0.10950  0.88790  0.36020  Biso   1.000  H
  H132     1.0000 0.02160  0.88430  0.27770  Biso   1.000  H
  H133     1.0000 0.87820  0.68270  0.52230  Biso   1.000  H
  H134     1.0000 0.94370  0.76070  0.54230  Biso   1.000  H
  H135     1.0000 0.21170  0.69350  0.51920  Biso   1.000  H
  H136     1.0000 0.15010  0.76740  0.54200  Biso   1.000  H
  H137     1.0000 0.08830  0.77120  0.67080  Biso   1.000  H
  H138     1.0000 0.11040  0.69940  0.72790  Biso   1.000  H
  H139     1.0000 0.97550  0.57030  0.48790  Biso   1.000  H
  H140     1.0000 0.10550  0.57460  0.48610  Biso   1.000  H
  H141     1.0000 0.00470  0.58180  0.69310  Biso   1.000  H
  H142     1.0000 0.91460  0.57580  0.61180  Biso   1.000  H
  H143     1.0000 0.24350  0.58570  0.60720  Biso   1.000  H
  H144     1.0000 0.20540  0.58780  0.69030  Biso   1.000  H
