data_image0
_cell_length_a       15.6887
_cell_length_b       15.6887
_cell_length_c       24.4805
_cell_angle_alpha    90
_cell_angle_beta     90
_cell_angle_gamma    120

_symmetry_space_group_name_H-M    "P 1"
_symmetry_int_tables_number       1

loop_
  _symmetry_equiv_pos_as_xyz
  'x, y, z'

loop_
  _atom_site_label
  _atom_site_occupancy
  _atom_site_fract_x
  _atom_site_fract_y
  _atom_site_fract_z
  _atom_site_thermal_displace_type
  _atom_site_B_iso_or_equiv
  _atom_site_type_symbol
  N1       1.0000 0.40970  0.82530  0.44780  Biso   1.000  N
  N2       1.0000 0.41200  0.82430  0.39120  Biso   1.000  N
  N3       1.0000 0.60020  0.17690  0.44780  Biso   1.000  N
  N4       1.0000 0.60230  0.17680  0.39090  Biso   1.000  N
  C1       1.0000 0.45410  0.90730  0.47420  Biso   1.000  C
  H1       1.0000 0.45170  0.90550  0.51340  Biso   1.000  H
  C2       1.0000 0.50650  0.00050  0.44830  Biso   1.000  C
  C3       1.0000 0.55500  0.09350  0.47530  Biso   1.000  C
  H2       1.0000 0.55460  0.09570  0.51450  Biso   1.000  H
  C4       1.0000 0.45920  0.90820  0.36540  Biso   1.000  C
  H3       1.0000 0.46010  0.90730  0.32620  Biso   1.000  H
  C5       1.0000 0.50920  0.00070  0.39170  Biso   1.000  C
  C6       1.0000 0.56030  0.09290  0.36380  Biso   1.000  C
  H4       1.0000 0.56540  0.09380  0.32470  Biso   1.000  H
  N5       1.0000 0.17470  0.58440  0.44780  Biso   1.000  N
  N6       1.0000 0.17570  0.58770  0.39120  Biso   1.000  N
  N7       1.0000 0.82310  0.42330  0.44780  Biso   1.000  N
  N8       1.0000 0.82320  0.42550  0.39090  Biso   1.000  N
  C7       1.0000 0.09270  0.54680  0.47420  Biso   1.000  C
  H5       1.0000 0.09450  0.54620  0.51340  Biso   1.000  H
  C8       1.0000 0.99950  0.50600  0.44830  Biso   1.000  C
  C9       1.0000 0.90650  0.46150  0.47530  Biso   1.000  C
  H6       1.0000 0.90430  0.45890  0.51450  Biso   1.000  H
  C10      1.0000 0.09180  0.55100  0.36540  Biso   1.000  C
  H7       1.0000 0.09270  0.55280  0.32620  Biso   1.000  H
  C11      1.0000 0.99930  0.50850  0.39170  Biso   1.000  C
  C12      1.0000 0.90710  0.46740  0.36380  Biso   1.000  C
  H8       1.0000 0.90620  0.47160  0.32470  Biso   1.000  H
  N9       1.0000 0.41560  0.59030  0.44780  Biso   1.000  N
  N10      1.0000 0.41230  0.58800  0.39120  Biso   1.000  N
  N11      1.0000 0.57670  0.39980  0.44780  Biso   1.000  N
  N12      1.0000 0.57450  0.39770  0.39090  Biso   1.000  N
  C13      1.0000 0.45320  0.54590  0.47420  Biso   1.000  C
  H9       1.0000 0.45380  0.54830  0.51340  Biso   1.000  H
  C14      1.0000 0.49400  0.49350  0.44830  Biso   1.000  C
  C15      1.0000 0.53850  0.44500  0.47530  Biso   1.000  C
  H10      1.0000 0.54110  0.44540  0.51450  Biso   1.000  H
  C16      1.0000 0.44900  0.54080  0.36540  Biso   1.000  C
  H11      1.0000 0.44720  0.53990  0.32620  Biso   1.000  H
  C17      1.0000 0.49150  0.49080  0.39170  Biso   1.000  C
  C18      1.0000 0.53260  0.43970  0.36380  Biso   1.000  C
  H12      1.0000 0.52840  0.43460  0.32470  Biso   1.000  H
  Ag1      1.0000 0.33333  0.66667  0.48445  Biso   1.000  Ag
  Ag2      1.0000 0.66667  0.33333  0.35406  Biso   1.000  Ag
  N13      1.0000 0.07637  0.15863  0.78113  Biso   1.000  N
  N14      1.0000 0.07867  0.15763  0.72453  Biso   1.000  N
  N15      1.0000 0.26687  0.51023  0.78113  Biso   1.000  N
  N16      1.0000 0.26897  0.51013  0.72423  Biso   1.000  N
  C19      1.0000 0.12077  0.24063  0.80753  Biso   1.000  C
  H13      1.0000 0.11837  0.23883  0.84673  Biso   1.000  H
  C20      1.0000 0.17317  0.33383  0.78163  Biso   1.000  C
  C21      1.0000 0.22167  0.42683  0.80863  Biso   1.000  C
  H14      1.0000 0.22127  0.42903  0.84783  Biso   1.000  H
  C22      1.0000 0.12587  0.24153  0.69873  Biso   1.000  C
  H15      1.0000 0.12677  0.24063  0.65953  Biso   1.000  H
  C23      1.0000 0.17587  0.33403  0.72503  Biso   1.000  C
  C24      1.0000 0.22697  0.42623  0.69713  Biso   1.000  C
  H16      1.0000 0.23207  0.42713  0.65803  Biso   1.000  H
  N17      1.0000 0.84137  0.91773  0.78113  Biso   1.000  N
  N18      1.0000 0.84237  0.92103  0.72453  Biso   1.000  N
  N19      1.0000 0.48977  0.75663  0.78113  Biso   1.000  N
  N20      1.0000 0.48987  0.75883  0.72423  Biso   1.000  N
  C25      1.0000 0.75937  0.88013  0.80753  Biso   1.000  C
  H17      1.0000 0.76117  0.87953  0.84673  Biso   1.000  H
  C26      1.0000 0.66617  0.83933  0.78163  Biso   1.000  C
  C27      1.0000 0.57317  0.79483  0.80863  Biso   1.000  C
  H18      1.0000 0.57097  0.79223  0.84783  Biso   1.000  H
  C28      1.0000 0.75847  0.88433  0.69873  Biso   1.000  C
  H19      1.0000 0.75937  0.88613  0.65953  Biso   1.000  H
  C29      1.0000 0.66597  0.84183  0.72503  Biso   1.000  C
  C30      1.0000 0.57377  0.80073  0.69713  Biso   1.000  C
  H20      1.0000 0.57287  0.80493  0.65803  Biso   1.000  H
  N21      1.0000 0.08227  0.92363  0.78113  Biso   1.000  N
  N22      1.0000 0.07897  0.92133  0.72453  Biso   1.000  N
  N23      1.0000 0.24337  0.73313  0.78113  Biso   1.000  N
  N24      1.0000 0.24117  0.73103  0.72423  Biso   1.000  N
  C31      1.0000 0.11987  0.87923  0.80753  Biso   1.000  C
  H21      1.0000 0.12047  0.88163  0.84673  Biso   1.000  H
  C32      1.0000 0.16067  0.82683  0.78163  Biso   1.000  C
  C33      1.0000 0.20517  0.77833  0.80863  Biso   1.000  C
  H22      1.0000 0.20777  0.77873  0.84783  Biso   1.000  H
  C34      1.0000 0.11567  0.87413  0.69873  Biso   1.000  C
  H23      1.0000 0.11387  0.87323  0.65953  Biso   1.000  H
  C35      1.0000 0.15817  0.82413  0.72503  Biso   1.000  C
  C36      1.0000 0.19927  0.77303  0.69713  Biso   1.000  C
  H24      1.0000 0.19507  0.76793  0.65803  Biso   1.000  H
  Ag3      1.0000 0.33333  0.66667  0.68739  Biso   1.000  Ag
  Ag4      1.0000 0.00000  0.00000  0.81779  Biso   1.000  Ag
  N25      1.0000 0.74303  0.49197  0.11447  Biso   1.000  N
  N26      1.0000 0.74533  0.49097  0.05787  Biso   1.000  N
  N27      1.0000 0.93353  0.84357  0.11447  Biso   1.000  N
  N28      1.0000 0.93563  0.84347  0.05757  Biso   1.000  N
  C37      1.0000 0.78743  0.57397  0.14087  Biso   1.000  C
  H25      1.0000 0.78503  0.57217  0.18007  Biso   1.000  H
  C38      1.0000 0.83983  0.66717  0.11497  Biso   1.000  C
  C39      1.0000 0.88833  0.76017  0.14197  Biso   1.000  C
  H26      1.0000 0.88793  0.76237  0.18117  Biso   1.000  H
  C40      1.0000 0.79253  0.57487  0.03207  Biso   1.000  C
  H27      1.0000 0.79343  0.57397  0.99287  Biso   1.000  H
  C41      1.0000 0.84253  0.66737  0.05837  Biso   1.000  C
  C42      1.0000 0.89363  0.75957  0.03047  Biso   1.000  C
  H28      1.0000 0.89873  0.76047  0.99137  Biso   1.000  H
  N29      1.0000 0.50803  0.25107  0.11447  Biso   1.000  N
  N30      1.0000 0.50903  0.25437  0.05787  Biso   1.000  N
  N31      1.0000 0.15643  0.08997  0.11447  Biso   1.000  N
  N32      1.0000 0.15653  0.09217  0.05757  Biso   1.000  N
  C43      1.0000 0.42603  0.21347  0.14087  Biso   1.000  C
  H29      1.0000 0.42783  0.21287  0.18007  Biso   1.000  H
  C44      1.0000 0.33283  0.17267  0.11497  Biso   1.000  C
  C45      1.0000 0.23983  0.12817  0.14197  Biso   1.000  C
  H30      1.0000 0.23763  0.12557  0.18117  Biso   1.000  H
  C46      1.0000 0.42513  0.21767  0.03207  Biso   1.000  C
  H31      1.0000 0.42603  0.21947  0.99287  Biso   1.000  H
  C47      1.0000 0.33263  0.17517  0.05837  Biso   1.000  C
  C48      1.0000 0.24043  0.13407  0.03047  Biso   1.000  C
  H32      1.0000 0.23953  0.13827  0.99137  Biso   1.000  H
  N33      1.0000 0.74893  0.25697  0.11447  Biso   1.000  N
  N34      1.0000 0.74563  0.25467  0.05787  Biso   1.000  N
  N35      1.0000 0.91003  0.06647  0.11447  Biso   1.000  N
  N36      1.0000 0.90783  0.06437  0.05757  Biso   1.000  N
  C49      1.0000 0.78653  0.21257  0.14087  Biso   1.000  C
  H33      1.0000 0.78713  0.21497  0.18007  Biso   1.000  H
  C50      1.0000 0.82733  0.16017  0.11497  Biso   1.000  C
  C51      1.0000 0.87183  0.11167  0.14197  Biso   1.000  C
  H34      1.0000 0.87443  0.11207  0.18117  Biso   1.000  H
  C52      1.0000 0.78233  0.20747  0.03207  Biso   1.000  C
  H35      1.0000 0.78053  0.20657  0.99287  Biso   1.000  H
  C53      1.0000 0.82483  0.15747  0.05837  Biso   1.000  C
  C54      1.0000 0.86593  0.10637  0.03047  Biso   1.000  C
  H36      1.0000 0.86173  0.10127  0.99137  Biso   1.000  H
  Ag5      1.0000 0.00000  0.00000  0.02072  Biso   1.000  Ag
  Ag6      1.0000 0.66667  0.33333  0.15112  Biso   1.000  Ag
  N37      1.0000 0.17470  0.59030  0.94780  Biso   1.000  N
  N38      1.0000 0.17570  0.58800  0.89120  Biso   1.000  N
  N39      1.0000 0.82310  0.39980  0.94780  Biso   1.000  N
  N40      1.0000 0.82320  0.39770  0.89090  Biso   1.000  N
  C55      1.0000 0.09270  0.54590  0.97420  Biso   1.000  C
  H37      1.0000 0.09450  0.54830  0.01340  Biso   1.000  H
  C56      1.0000 0.99950  0.49350  0.94830  Biso   1.000  C
  C57      1.0000 0.90650  0.44500  0.97530  Biso   1.000  C
  H38      1.0000 0.90430  0.44540  0.01450  Biso   1.000  H
  C58      1.0000 0.09180  0.54080  0.86540  Biso   1.000  C
  H39      1.0000 0.09270  0.53990  0.82620  Biso   1.000  H
  C59      1.0000 0.99930  0.49080  0.89170  Biso   1.000  C
  C60      1.0000 0.90710  0.43970  0.86380  Biso   1.000  C
  H40      1.0000 0.90620  0.43460  0.82470  Biso   1.000  H
  N41      1.0000 0.41560  0.82530  0.94780  Biso   1.000  N
  N42      1.0000 0.41230  0.82430  0.89120  Biso   1.000  N
  N43      1.0000 0.57670  0.17690  0.94780  Biso   1.000  N
  N44      1.0000 0.57450  0.17680  0.89090  Biso   1.000  N
  C61      1.0000 0.45320  0.90730  0.97420  Biso   1.000  C
  H41      1.0000 0.45380  0.90550  0.01340  Biso   1.000  H
  C62      1.0000 0.49400  0.00050  0.94830  Biso   1.000  C
  C63      1.0000 0.53850  0.09350  0.97530  Biso   1.000  C
  H42      1.0000 0.54110  0.09570  0.01450  Biso   1.000  H
  C64      1.0000 0.44900  0.90820  0.86540  Biso   1.000  C
  H43      1.0000 0.44720  0.90730  0.82620  Biso   1.000  H
  C65      1.0000 0.49150  0.00070  0.89170  Biso   1.000  C
  C66      1.0000 0.53260  0.09290  0.86380  Biso   1.000  C
  H44      1.0000 0.52840  0.09380  0.82470  Biso   1.000  H
  N45      1.0000 0.40970  0.58440  0.94780  Biso   1.000  N
  N46      1.0000 0.41200  0.58770  0.89120  Biso   1.000  N
  N47      1.0000 0.60020  0.42330  0.94780  Biso   1.000  N
  N48      1.0000 0.60230  0.42550  0.89090  Biso   1.000  N
  C67      1.0000 0.45410  0.54680  0.97420  Biso   1.000  C
  H45      1.0000 0.45170  0.54620  0.01340  Biso   1.000  H
  C68      1.0000 0.50650  0.50600  0.94830  Biso   1.000  C
  C69      1.0000 0.55500  0.46150  0.97530  Biso   1.000  C
  H46      1.0000 0.55460  0.45890  0.01450  Biso   1.000  H
  C70      1.0000 0.45920  0.55100  0.86540  Biso   1.000  C
  H47      1.0000 0.46010  0.55280  0.82620  Biso   1.000  H
  C71      1.0000 0.50920  0.50850  0.89170  Biso   1.000  C
  C72      1.0000 0.56030  0.46740  0.86380  Biso   1.000  C
  H48      1.0000 0.56540  0.47160  0.82470  Biso   1.000  H
  Ag7      1.0000 0.33333  0.66667  0.98445  Biso   1.000  Ag
  Ag8      1.0000 0.66667  0.33333  0.85406  Biso   1.000  Ag
  N49      1.0000 0.84137  0.92363  0.28113  Biso   1.000  N
  N50      1.0000 0.84237  0.92133  0.22453  Biso   1.000  N
  N51      1.0000 0.48977  0.73313  0.28113  Biso   1.000  N
  N52      1.0000 0.48987  0.73103  0.22423  Biso   1.000  N
  C73      1.0000 0.75937  0.87923  0.30753  Biso   1.000  C
  H49      1.0000 0.76117  0.88163  0.34673  Biso   1.000  H
  C74      1.0000 0.66617  0.82683  0.28163  Biso   1.000  C
  C75      1.0000 0.57317  0.77833  0.30863  Biso   1.000  C
  H50      1.0000 0.57097  0.77873  0.34783  Biso   1.000  H
  C76      1.0000 0.75847  0.87413  0.19873  Biso   1.000  C
  H51      1.0000 0.75937  0.87323  0.15953  Biso   1.000  H
  C77      1.0000 0.66597  0.82413  0.22503  Biso   1.000  C
  C78      1.0000 0.57377  0.77303  0.19713  Biso   1.000  C
  H52      1.0000 0.57287  0.76793  0.15803  Biso   1.000  H
  N53      1.0000 0.08227  0.15863  0.28113  Biso   1.000  N
  N54      1.0000 0.07897  0.15763  0.22453  Biso   1.000  N
  N55      1.0000 0.24337  0.51023  0.28113  Biso   1.000  N
  N56      1.0000 0.24117  0.51013  0.22423  Biso   1.000  N
  C79      1.0000 0.11987  0.24063  0.30753  Biso   1.000  C
  H53      1.0000 0.12047  0.23883  0.34673  Biso   1.000  H
  C80      1.0000 0.16067  0.33383  0.28163  Biso   1.000  C
  C81      1.0000 0.20517  0.42683  0.30863  Biso   1.000  C
  H54      1.0000 0.20777  0.42903  0.34783  Biso   1.000  H
  C82      1.0000 0.11567  0.24153  0.19873  Biso   1.000  C
  H55      1.0000 0.11387  0.24063  0.15953  Biso   1.000  H
  C83      1.0000 0.15817  0.33403  0.22503  Biso   1.000  C
  C84      1.0000 0.19927  0.42623  0.19713  Biso   1.000  C
  H56      1.0000 0.19507  0.42713  0.15803  Biso   1.000  H
  N57      1.0000 0.07637  0.91773  0.28113  Biso   1.000  N
  N58      1.0000 0.07867  0.92103  0.22453  Biso   1.000  N
  N59      1.0000 0.26687  0.75663  0.28113  Biso   1.000  N
  N60      1.0000 0.26897  0.75883  0.22423  Biso   1.000  N
  C85      1.0000 0.12077  0.88013  0.30753  Biso   1.000  C
  H57      1.0000 0.11837  0.87953  0.34673  Biso   1.000  H
  C86      1.0000 0.17317  0.83933  0.28163  Biso   1.000  C
  C87      1.0000 0.22167  0.79483  0.30863  Biso   1.000  C
  H58      1.0000 0.22127  0.79223  0.34783  Biso   1.000  H
  C88      1.0000 0.12587  0.88433  0.19873  Biso   1.000  C
  H59      1.0000 0.12677  0.88613  0.15953  Biso   1.000  H
  C89      1.0000 0.17587  0.84183  0.22503  Biso   1.000  C
  C90      1.0000 0.22697  0.80073  0.19713  Biso   1.000  C
  H60      1.0000 0.23207  0.80493  0.15803  Biso   1.000  H
  Ag9      1.0000 0.33333  0.66667  0.18739  Biso   1.000  Ag
  Ag10     1.0000 0.00000  0.00000  0.31779  Biso   1.000  Ag
  N61      1.0000 0.50803  0.25697  0.61447  Biso   1.000  N
  N62      1.0000 0.50903  0.25467  0.55787  Biso   1.000  N
  N63      1.0000 0.15643  0.06647  0.61447  Biso   1.000  N
  N64      1.0000 0.15653  0.06437  0.55757  Biso   1.000  N
  C91      1.0000 0.42603  0.21257  0.64087  Biso   1.000  C
  H61      1.0000 0.42783  0.21497  0.68007  Biso   1.000  H
  C92      1.0000 0.33283  0.16017  0.61497  Biso   1.000  C
  C93      1.0000 0.23983  0.11167  0.64197  Biso   1.000  C
  H62      1.0000 0.23763  0.11207  0.68117  Biso   1.000  H
  C94      1.0000 0.42513  0.20747  0.53207  Biso   1.000  C
  H63      1.0000 0.42603  0.20657  0.49287  Biso   1.000  H
  C95      1.0000 0.33263  0.15747  0.55837  Biso   1.000  C
  C96      1.0000 0.24043  0.10637  0.53047  Biso   1.000  C
  H64      1.0000 0.23953  0.10127  0.49137  Biso   1.000  H
  N65      1.0000 0.74893  0.49197  0.61447  Biso   1.000  N
  N66      1.0000 0.74563  0.49097  0.55787  Biso   1.000  N
  N67      1.0000 0.91003  0.84357  0.61447  Biso   1.000  N
  N68      1.0000 0.90783  0.84347  0.55757  Biso   1.000  N
  C97      1.0000 0.78653  0.57397  0.64087  Biso   1.000  C
  H65      1.0000 0.78713  0.57217  0.68007  Biso   1.000  H
  C98      1.0000 0.82733  0.66717  0.61497  Biso   1.000  C
  C99      1.0000 0.87183  0.76017  0.64197  Biso   1.000  C
  H66      1.0000 0.87443  0.76237  0.68117  Biso   1.000  H
  C100     1.0000 0.78233  0.57487  0.53207  Biso   1.000  C
  H67      1.0000 0.78053  0.57397  0.49287  Biso   1.000  H
  C101     1.0000 0.82483  0.66737  0.55837  Biso   1.000  C
  C102     1.0000 0.86593  0.75957  0.53047  Biso   1.000  C
  H68      1.0000 0.86173  0.76047  0.49137  Biso   1.000  H
  N69      1.0000 0.74303  0.25107  0.61447  Biso   1.000  N
  N70      1.0000 0.74533  0.25437  0.55787  Biso   1.000  N
  N71      1.0000 0.93353  0.08997  0.61447  Biso   1.000  N
  N72      1.0000 0.93563  0.09217  0.55757  Biso   1.000  N
  C103     1.0000 0.78743  0.21347  0.64087  Biso   1.000  C
  H69      1.0000 0.78503  0.21287  0.68007  Biso   1.000  H
  C104     1.0000 0.83983  0.17267  0.61497  Biso   1.000  C
  C105     1.0000 0.88833  0.12817  0.64197  Biso   1.000  C
  H70      1.0000 0.88793  0.12557  0.68117  Biso   1.000  H
  C106     1.0000 0.79253  0.21767  0.53207  Biso   1.000  C
  H71      1.0000 0.79343  0.21947  0.49287  Biso   1.000  H
  C107     1.0000 0.84253  0.17517  0.55837  Biso   1.000  C
  C108     1.0000 0.89363  0.13407  0.53047  Biso   1.000  C
  H72      1.0000 0.89873  0.13827  0.49137  Biso   1.000  H
  Ag11     1.0000 0.00000  0.00000  0.52072  Biso   1.000  Ag
  Ag12     1.0000 0.66667  0.33333  0.65112  Biso   1.000  Ag
