data_WIWDEN_clean
_audit_creation_date              2015-10-16
_audit_creation_method            'Materials Studio'
_symmetry_space_group_name_H-M    'P1'
_symmetry_Int_Tables_number       1
_symmetry_cell_setting            triclinic
loop_
_symmetry_equiv_pos_as_xyz
  x,y,z
_cell_length_a                    6.8477
_cell_length_b                    9.2584
_cell_length_c                    18.2620
_cell_angle_alpha                 90.0000
_cell_angle_beta                  90.0000
_cell_angle_gamma                 92.0060
loop_
_atom_site_label
_atom_site_type_symbol
_atom_site_fract_x
_atom_site_fract_y
_atom_site_fract_z
_atom_site_U_iso_or_equiv
_atom_site_adp_type
_atom_site_occupancy
Cd1    Cd    0.75311   0.39549   0.48111   0.01267  Uiso   1.00
Cd2    Cd    0.74689   0.10451   0.98111   0.01267  Uiso   1.00
H1     H     0.02340   0.49880   0.29790   0.01267  Uiso   1.00
H2     H     0.06580   0.12170   0.68640   0.01267  Uiso   1.00
H3     H     0.43420   0.37830   0.18640   0.01267  Uiso   1.00
H4     H     0.67100   0.87500   0.88700   0.01267  Uiso   1.00
H5     H     0.01830   0.37760   0.18720   0.01267  Uiso   1.00
H6     H     0.43890   0.49500   0.29790   0.01267  Uiso   1.00
H7     H     0.48170   0.12240   0.68720   0.01267  Uiso   1.00
H8     H     0.82900   0.62500   0.38700   0.01267  Uiso   1.00
H9     H     0.06110   0.00500   0.79790   0.01267  Uiso   1.00
H10    H     0.63200   0.61200   0.39100   0.01267  Uiso   1.00
H11    H     0.86800   0.88800   0.89100   0.01267  Uiso   1.00
H12    H     0.47660   0.00120   0.79790   0.01267  Uiso   1.00
C1     C     0.73170   0.50540   0.31056   0.01267  Uiso   1.00
C2     C     0.90120   0.40100   0.20930   0.01267  Uiso   1.00
C3     C     0.76830   0.99460   0.81056   0.01267  Uiso   1.00
C4     C     0.72630   0.36390   0.17513   0.01267  Uiso   1.00
C5     C     0.94690   0.09910   0.70900   0.01267  Uiso   1.00
C6     C     0.55310   0.40090   0.20900   0.01267  Uiso   1.00
C7     C     0.94420   0.02910   0.77600   0.01267  Uiso   1.00
C8     C     0.77710   0.21420   0.60300   0.01267  Uiso   1.00
C9     C     0.59880   0.09900   0.70930   0.01267  Uiso   1.00
C10    C     0.90440   0.47270   0.27620   0.01267  Uiso   1.00
C11    C     0.77370   0.13610   0.67513   0.01267  Uiso   1.00
C12    C     0.59560   0.02730   0.77620   0.01267  Uiso   1.00
C13    C     0.72290   0.28580   0.10300   0.01267  Uiso   1.00
C14    C     0.55580   0.47090   0.27600   0.01267  Uiso   1.00
N1     N     0.76650   0.93420   0.88137   0.01267  Uiso   1.00
N2     N     0.73350   0.56580   0.38137   0.01267  Uiso   1.00
O1     O     0.56350   0.26190   0.07043   0.01267  Uiso   1.00
O2     O     0.61860   0.25780   0.57738   0.01267  Uiso   1.00
O3     O     0.93650   0.23810   0.57043   0.01267  Uiso   1.00
O4     O     0.88140   0.24220   0.07738   0.01267  Uiso   1.00
Cd3    Cd    0.25311   0.89549   0.01889   0.01267  Uiso   1.00
Cd4    Cd    0.24689   0.60451   0.51889   0.01267  Uiso   1.00
H13    H     0.56580   0.62170   0.81360   0.01267  Uiso   1.00
H14    H     0.97660   0.50120   0.70210   0.01267  Uiso   1.00
H15    H     0.56110   0.50500   0.70210   0.01267  Uiso   1.00
H16    H     0.13200   0.11200   0.10900   0.01267  Uiso   1.00
H17    H     0.93420   0.87830   0.31360   0.01267  Uiso   1.00
H18    H     0.32900   0.12500   0.11300   0.01267  Uiso   1.00
H19    H     0.93890   0.99500   0.20210   0.01267  Uiso   1.00
H20    H     0.17100   0.37500   0.61300   0.01267  Uiso   1.00
H21    H     0.52340   0.99880   0.20210   0.01267  Uiso   1.00
H22    H     0.36800   0.38800   0.60900   0.01267  Uiso   1.00
H23    H     0.51830   0.87760   0.31280   0.01267  Uiso   1.00
H24    H     0.98170   0.62240   0.81280   0.01267  Uiso   1.00
C15    C     0.05310   0.90090   0.29100   0.01267  Uiso   1.00
C16    C     0.09560   0.52730   0.72380   0.01267  Uiso   1.00
C17    C     0.23170   0.00540   0.18944   0.01267  Uiso   1.00
C18    C     0.44420   0.52910   0.72400   0.01267  Uiso   1.00
C19    C     0.27370   0.63610   0.82487   0.01267  Uiso   1.00
C20    C     0.26830   0.49460   0.68944   0.01267  Uiso   1.00
C21    C     0.22630   0.86390   0.32487   0.01267  Uiso   1.00
C22    C     0.09880   0.59900   0.79070   0.01267  Uiso   1.00
C23    C     0.40120   0.90100   0.29070   0.01267  Uiso   1.00
C24    C     0.27710   0.71420   0.89700   0.01267  Uiso   1.00
C25    C     0.44690   0.59910   0.79100   0.01267  Uiso   1.00
C26    C     0.40440   0.97270   0.22380   0.01267  Uiso   1.00
C27    C     0.22290   0.78580   0.39700   0.01267  Uiso   1.00
C28    C     0.05580   0.97090   0.22400   0.01267  Uiso   1.00
N3     N     0.23350   0.06580   0.11863   0.01267  Uiso   1.00
N4     N     0.26650   0.43420   0.61863   0.01267  Uiso   1.00
O5     O     0.43650   0.73810   0.92957   0.01267  Uiso   1.00
O6     O     0.38140   0.74220   0.42262   0.01267  Uiso   1.00
O7     O     0.06350   0.76190   0.42957   0.01267  Uiso   1.00
O8     O     0.11860   0.75780   0.92262   0.01267  Uiso   1.00
