data_image0
_cell_length_a       12.2131
_cell_length_b       15.051
_cell_length_c       15.83
_cell_angle_alpha    70.706
_cell_angle_beta     67.519
_cell_angle_gamma    74.231

_symmetry_space_group_name_H-M    "P 1"
_symmetry_int_tables_number       1

loop_
  _symmetry_equiv_pos_as_xyz
  'x, y, z'

loop_
  _atom_site_label
  _atom_site_occupancy
  _atom_site_fract_x
  _atom_site_fract_y
  _atom_site_fract_z
  _atom_site_thermal_displace_type
  _atom_site_B_iso_or_equiv
  _atom_site_type_symbol
  Ag1      1.0000 0.44117  0.56816  0.14895  Biso   1.000  Ag
  S1       1.0000 0.42292  0.57653  0.30861  Biso   1.000  S
  S2       1.0000 0.58887  0.56416  0.89826  Biso   1.000  S
  C1       1.0000 0.26110  0.61260  0.36430  Biso   1.000  C
  C2       1.0000 0.23490  0.61620  0.46110  Biso   1.000  C
  C3       1.0000 0.21500  0.61750  0.54060  Biso   1.000  C
  C4       1.0000 0.18920  0.61740  0.63750  Biso   1.000  C
  C5       1.0000 0.07520  0.60750  0.70260  Biso   1.000  C
  C6       1.0000 0.05080  0.60860  0.79530  Biso   1.000  C
  C7       1.0000 0.13900  0.62100  0.82350  Biso   1.000  C
  C8       1.0000 0.25390  0.63090  0.75870  Biso   1.000  C
  C9       1.0000 0.27890  0.62830  0.66560  Biso   1.000  C
  C10      1.0000 0.34420  0.64550  0.78790  Biso   1.000  C
  C11      1.0000 0.41750  0.65940  0.81300  Biso   1.000  C
  C12      1.0000 0.50490  0.67580  0.84550  Biso   1.000  C
  C13      1.0000 0.74210  0.58130  0.82340  Biso   1.000  C
  C14      1.0000 0.76380  0.59380  0.72330  Biso   1.000  C
  C15      1.0000 0.78120  0.60810  0.64090  Biso   1.000  C
  C16      1.0000 0.80570  0.61930  0.54130  Biso   1.000  C
  C17      1.0000 0.92380  0.61530  0.47950  Biso   1.000  C
  C18      1.0000 0.94770  0.62100  0.38530  Biso   1.000  C
  C19      1.0000 0.85440  0.63080  0.35110  Biso   1.000  C
  C20      1.0000 0.73570  0.63690  0.41200  Biso   1.000  C
  C21      1.0000 0.71150  0.63120  0.50720  Biso   1.000  C
  C22      1.0000 0.64020  0.65190  0.37480  Biso   1.000  C
  C23      1.0000 0.56390  0.66760  0.33930  Biso   1.000  C
  C24      1.0000 0.47260  0.68660  0.29530  Biso   1.000  C
  H1       1.0000 0.23550  0.67420  0.32880  Biso   1.000  H
  H2       1.0000 0.21870  0.56800  0.36460  Biso   1.000  H
  H3       1.0000 0.01410  0.60010  0.68340  Biso   1.000  H
  H4       1.0000 0.97320  0.60090  0.83980  Biso   1.000  H
  H5       1.0000 0.12150  0.62280  0.88690  Biso   1.000  H
  H6       1.0000 0.35720  0.63390  0.62160  Biso   1.000  H
  H7       1.0000 0.46390  0.71160  0.89140  Biso   1.000  H
  H8       1.0000 0.56000  0.71130  0.79310  Biso   1.000  H
  H9       1.0000 0.75780  0.63620  0.83090  Biso   1.000  H
  H10      1.0000 0.79570  0.52670  0.84390  Biso   1.000  H
  H11      1.0000 0.98780  0.60880  0.50240  Biso   1.000  H
  H12      1.0000 0.02810  0.61840  0.34350  Biso   1.000  H
  H13      1.0000 0.87120  0.63300  0.28680  Biso   1.000  H
  H14      1.0000 0.63090  0.63590  0.54850  Biso   1.000  H
  H15      1.0000 0.50490  0.71580  0.22990  Biso   1.000  H
  H16      1.0000 0.40550  0.72880  0.32380  Biso   1.000  H
  Ag2      1.0000 0.55883  0.43184  0.85105  Biso   1.000  Ag
  S3       1.0000 0.57708  0.42347  0.69139  Biso   1.000  S
  S4       1.0000 0.41113  0.43584  0.10174  Biso   1.000  S
  C25      1.0000 0.73890  0.38740  0.63570  Biso   1.000  C
  C26      1.0000 0.76510  0.38380  0.53890  Biso   1.000  C
  C27      1.0000 0.78500  0.38250  0.45940  Biso   1.000  C
  C28      1.0000 0.81080  0.38260  0.36250  Biso   1.000  C
  C29      1.0000 0.92480  0.39250  0.29740  Biso   1.000  C
  C30      1.0000 0.94920  0.39140  0.20470  Biso   1.000  C
  C31      1.0000 0.86100  0.37900  0.17650  Biso   1.000  C
  C32      1.0000 0.74610  0.36910  0.24130  Biso   1.000  C
  C33      1.0000 0.72110  0.37170  0.33440  Biso   1.000  C
  C34      1.0000 0.65580  0.35450  0.21210  Biso   1.000  C
  C35      1.0000 0.58250  0.34060  0.18700  Biso   1.000  C
  C36      1.0000 0.49510  0.32420  0.15450  Biso   1.000  C
  C37      1.0000 0.25790  0.41870  0.17660  Biso   1.000  C
  C38      1.0000 0.23620  0.40620  0.27670  Biso   1.000  C
  C39      1.0000 0.21880  0.39190  0.35910  Biso   1.000  C
  C40      1.0000 0.19430  0.38070  0.45870  Biso   1.000  C
  C41      1.0000 0.07620  0.38470  0.52050  Biso   1.000  C
  C42      1.0000 0.05230  0.37900  0.61470  Biso   1.000  C
  C43      1.0000 0.14560  0.36920  0.64890  Biso   1.000  C
  C44      1.0000 0.26430  0.36310  0.58800  Biso   1.000  C
  C45      1.0000 0.28850  0.36880  0.49280  Biso   1.000  C
  C46      1.0000 0.35980  0.34810  0.62520  Biso   1.000  C
  C47      1.0000 0.43610  0.33240  0.66070  Biso   1.000  C
  C48      1.0000 0.52740  0.31340  0.70470  Biso   1.000  C
  H17      1.0000 0.76450  0.32580  0.67120  Biso   1.000  H
  H18      1.0000 0.78130  0.43200  0.63540  Biso   1.000  H
  H19      1.0000 0.98590  0.39990  0.31660  Biso   1.000  H
  H20      1.0000 0.02680  0.39910  0.16020  Biso   1.000  H
  H21      1.0000 0.87850  0.37720  0.11310  Biso   1.000  H
  H22      1.0000 0.64280  0.36610  0.37840  Biso   1.000  H
  H23      1.0000 0.53610  0.28840  0.10860  Biso   1.000  H
  H24      1.0000 0.44000  0.28870  0.20690  Biso   1.000  H
  H25      1.0000 0.24220  0.36380  0.16910  Biso   1.000  H
  H26      1.0000 0.20430  0.47330  0.15610  Biso   1.000  H
  H27      1.0000 0.01220  0.39120  0.49760  Biso   1.000  H
  H28      1.0000 0.97190  0.38160  0.65650  Biso   1.000  H
  H29      1.0000 0.12880  0.36700  0.71320  Biso   1.000  H
  H30      1.0000 0.36910  0.36410  0.45150  Biso   1.000  H
  H31      1.0000 0.49510  0.28420  0.77010  Biso   1.000  H
  H32      1.0000 0.59450  0.27120  0.67620  Biso   1.000  H
  Ag3      1.0000 0.73886  0.95993  0.00943  Biso   1.000  Ag
  S5       1.0000 0.80073  0.96301  0.14521  Biso   1.000  S
  S6       1.0000 0.93721  0.95100  0.87689  Biso   1.000  S
  C49      1.0000 0.73140  0.07330  0.18300  Biso   1.000  C
  C50      1.0000 0.60230  0.08280  0.23260  Biso   1.000  C
  C51      1.0000 0.49820  0.09430  0.27810  Biso   1.000  C
  C52      1.0000 0.37790  0.11430  0.34080  Biso   1.000  C
  C53      1.0000 0.27640  0.14450  0.31080  Biso   1.000  C
  C54      1.0000 0.16340  0.16460  0.37540  Biso   1.000  C
  C55      1.0000 0.14970  0.15640  0.46860  Biso   1.000  C
  C56      1.0000 0.25050  0.12720  0.49920  Biso   1.000  C
  C57      1.0000 0.36360  0.10520  0.43520  Biso   1.000  C
  C58      1.0000 0.24470  0.12310  0.59290  Biso   1.000  C
  C59      1.0000 0.25320  0.12390  0.66530  Biso   1.000  C
  C60      1.0000 0.72830  0.87520  0.24920  Biso   1.000  C
  C61      1.0000 0.93700  0.05960  0.78110  Biso   1.000  C
  C62      1.0000 0.85840  0.07070  0.72690  Biso   1.000  C
  C63      1.0000 0.80290  0.08210  0.67540  Biso   1.000  C
  C64      1.0000 0.75130  0.10060  0.60170  Biso   1.000  C
  C65      1.0000 0.62750  0.11960  0.61750  Biso   1.000  C
  C66      1.0000 0.58370  0.14240  0.54260  Biso   1.000  C
  C67      1.0000 0.66190  0.14540  0.45140  Biso   1.000  C
  C68      1.0000 0.78640  0.12520  0.43460  Biso   1.000  C
  C69      1.0000 0.82970  0.10220  0.51030  Biso   1.000  C
  C70      1.0000 0.87190  0.12950  0.34180  Biso   1.000  C
  C71      1.0000 0.95140  0.13520  0.26790  Biso   1.000  C
  C72      1.0000 0.94670  0.86170  0.81910  Biso   1.000  C
  H33      1.0000 0.76940  0.07650  0.22410  Biso   1.000  H
  H34      1.0000 0.74530  0.12540  0.12850  Biso   1.000  H
  H35      1.0000 0.28480  0.15090  0.24700  Biso   1.000  H
  H36      1.0000 0.09460  0.18420  0.35520  Biso   1.000  H
  H37      1.0000 0.07210  0.17070  0.51170  Biso   1.000  H
  H38      1.0000 0.43190  0.08350  0.45610  Biso   1.000  H
  H39      1.0000 0.64440  0.88860  0.25860  Biso   1.000  H
  H40      1.0000 0.76040  0.81350  0.23820  Biso   1.000  H
  H41      1.0000 0.01680  0.06020  0.73860  Biso   1.000  H
  H42      1.0000 0.91240  0.11260  0.80790  Biso   1.000  H
  H43      1.0000 0.57310  0.11700  0.67980  Biso   1.000  H
  H44      1.0000 0.49940  0.15590  0.55390  Biso   1.000  H
  H45      1.0000 0.63130  0.16120  0.40040  Biso   1.000  H
  H46      1.0000 0.91390  0.08730  0.49940  Biso   1.000  H
  H47      1.0000 0.87470  0.87260  0.80460  Biso   1.000  H
  H48      1.0000 0.95570  0.80020  0.86100  Biso   1.000  H
  Ag4      1.0000 0.26114  0.04007  0.99057  Biso   1.000  Ag
  S7       1.0000 0.19927  0.03699  0.85479  Biso   1.000  S
  S8       1.0000 0.06279  0.04900  0.12311  Biso   1.000  S
  C73      1.0000 0.26860  0.92670  0.81700  Biso   1.000  C
  C74      1.0000 0.39770  0.91720  0.76740  Biso   1.000  C
  C75      1.0000 0.50180  0.90570  0.72190  Biso   1.000  C
  C76      1.0000 0.62210  0.88570  0.65920  Biso   1.000  C
  C77      1.0000 0.72360  0.85550  0.68920  Biso   1.000  C
  C78      1.0000 0.83660  0.83540  0.62460  Biso   1.000  C
  C79      1.0000 0.85030  0.84360  0.53140  Biso   1.000  C
  C80      1.0000 0.74950  0.87280  0.50080  Biso   1.000  C
  C81      1.0000 0.63640  0.89480  0.56480  Biso   1.000  C
  C82      1.0000 0.75530  0.87690  0.40710  Biso   1.000  C
  C83      1.0000 0.74680  0.87610  0.33470  Biso   1.000  C
  C84      1.0000 0.27170  0.12480  0.75080  Biso   1.000  C
  C85      1.0000 0.06300  0.94040  0.21890  Biso   1.000  C
  C86      1.0000 0.14160  0.92930  0.27310  Biso   1.000  C
  C87      1.0000 0.19710  0.91790  0.32460  Biso   1.000  C
  C88      1.0000 0.24870  0.89940  0.39830  Biso   1.000  C
  C89      1.0000 0.37250  0.88040  0.38250  Biso   1.000  C
  C90      1.0000 0.41630  0.85760  0.45740  Biso   1.000  C
  C91      1.0000 0.33810  0.85460  0.54860  Biso   1.000  C
  C92      1.0000 0.21360  0.87480  0.56540  Biso   1.000  C
  C93      1.0000 0.17030  0.89780  0.48970  Biso   1.000  C
  C94      1.0000 0.12810  0.87050  0.65820  Biso   1.000  C
  C95      1.0000 0.04860  0.86480  0.73210  Biso   1.000  C
  C96      1.0000 0.05330  0.13830  0.18090  Biso   1.000  C
  H49      1.0000 0.23060  0.92350  0.77590  Biso   1.000  H
  H50      1.0000 0.25470  0.87460  0.87150  Biso   1.000  H
  H51      1.0000 0.71520  0.84910  0.75300  Biso   1.000  H
  H52      1.0000 0.90540  0.81580  0.64480  Biso   1.000  H
  H53      1.0000 0.92790  0.82930  0.48830  Biso   1.000  H
  H54      1.0000 0.56810  0.91650  0.54390  Biso   1.000  H
  H55      1.0000 0.35560  0.11140  0.74140  Biso   1.000  H
  H56      1.0000 0.23960  0.18650  0.76180  Biso   1.000  H
  H57      1.0000 0.98320  0.93980  0.26140  Biso   1.000  H
  H58      1.0000 0.08760  0.88740  0.19210  Biso   1.000  H
  H59      1.0000 0.42690  0.88300  0.32020  Biso   1.000  H
  H60      1.0000 0.50060  0.84410  0.44610  Biso   1.000  H
  H61      1.0000 0.36870  0.83880  0.59960  Biso   1.000  H
  H62      1.0000 0.08610  0.91270  0.50060  Biso   1.000  H
  H63      1.0000 0.12530  0.12740  0.19540  Biso   1.000  H
  H64      1.0000 0.04430  0.19980  0.13900  Biso   1.000  H
