data_image0
_cell_length_a       6.8275
_cell_length_b       14.5728
_cell_length_c       16.2015
_cell_angle_alpha    63.753
_cell_angle_beta     78.631
_cell_angle_gamma    82.326

_symmetry_space_group_name_H-M    "P 1"
_symmetry_int_tables_number       1

loop_
  _symmetry_equiv_pos_as_xyz
  'x, y, z'

loop_
  _atom_site_label
  _atom_site_occupancy
  _atom_site_fract_x
  _atom_site_fract_y
  _atom_site_fract_z
  _atom_site_thermal_displace_type
  _atom_site_B_iso_or_equiv
  _atom_site_type_symbol
  U1       1.0000 0.23189  0.74524  0.25747  Biso   1.000  U
  U2       1.0000 0.37878  0.75711  0.57800  Biso   1.000  U
  U3       1.0000 0.12787  0.74733  0.93440  Biso   1.000  U
  O1       1.0000 0.10920  0.87810  0.91400  Biso   1.000  O
  O2       1.0000 0.89120  0.80340  0.29940  Biso   1.000  O
  O3       1.0000 0.11850  0.90270  0.28770  Biso   1.000  O
  O4       1.0000 0.44840  0.78560  0.42200  Biso   1.000  O
  O5       1.0000 0.48520  0.83680  0.26950  Biso   1.000  O
  O6       1.0000 0.34800  0.58690  0.22880  Biso   1.000  O
  O7       1.0000 0.57510  0.69220  0.20770  Biso   1.000  O
  O8       1.0000 0.04210  0.70700  0.09240  Biso   1.000  O
  O9       1.0000 0.97630  0.65070  0.24570  Biso   1.000  O
  O10      1.0000 0.06330  0.76970  0.52670  Biso   1.000  O
  O11      1.0000 0.73770  0.76620  0.53280  Biso   1.000  O
  O12      1.0000 0.11300  0.73430  0.70250  Biso   1.000  O
  O13      1.0000 0.97530  0.80410  0.79860  Biso   1.000  O
  O14      1.0000 0.43960  0.73020  0.98980  Biso   1.000  O
  O15      1.0000 0.76430  0.74380  0.97480  Biso   1.000  O
  O16      1.0000 0.39530  0.77150  0.81060  Biso   1.000  O
  O17      1.0000 0.53560  0.70370  0.71230  Biso   1.000  O
  C1       1.0000 0.93680  0.88560  0.29890  Biso   1.000  C
  C2       1.0000 0.78070  0.96240  0.30790  Biso   1.000  C
  H1       1.0000 0.81990  0.02570  0.30150  Biso   1.000  H
  C3       1.0000 0.58810  0.94610  0.32450  Biso   1.000  C
  H2       1.0000 0.49560  0.99990  0.32720  Biso   1.000  H
  C4       1.0000 0.50540  0.84910  0.33950  Biso   1.000  C
  C5       1.0000 0.53190  0.60970  0.21060  Biso   1.000  C
  C6       1.0000 0.68660  0.53670  0.19320  Biso   1.000  C
  H3       1.0000 0.64640  0.47670  0.19340  Biso   1.000  H
  C7       1.0000 0.87920  0.55210  0.17740  Biso   1.000  C
  H4       1.0000 0.96960  0.50060  0.16850  Biso   1.000  H
  C8       1.0000 0.96860  0.64330  0.17230  Biso   1.000  C
  C9       1.0000 0.88510  0.80180  0.54460  Biso   1.000  C
  C10      1.0000 0.84130  0.88690  0.57450  Biso   1.000  C
  H5       1.0000 0.76930  0.94650  0.53700  Biso   1.000  H
  C11      1.0000 0.89530  0.88560  0.64960  Biso   1.000  C
  H6       1.0000 0.85920  0.94570  0.65930  Biso   1.000  H
  C12      1.0000 0.00530  0.80190  0.72050  Biso   1.000  C
  C13      1.0000 0.61830  0.70420  0.96810  Biso   1.000  C
  C14      1.0000 0.66490  0.62110  0.93720  Biso   1.000  C
  H7       1.0000 0.73600  0.56170  0.97550  Biso   1.000  H
  C15      1.0000 0.61770  0.62050  0.86100  Biso   1.000  C
  H8       1.0000 0.65710  0.56080  0.85100  Biso   1.000  H
  C16      1.0000 0.50960  0.70470  0.79110  Biso   1.000  C
  Cs1      1.0000 0.75196  0.91044  0.08183  Biso   1.000  Cs
  O18      1.0000 0.39520  0.04500  0.10630  Biso   1.000  O
  U4       1.0000 0.76811  0.25476  0.74253  Biso   1.000  U
  U5       1.0000 0.62122  0.24289  0.42200  Biso   1.000  U
  U6       1.0000 0.87213  0.25267  0.06560  Biso   1.000  U
  O19      1.0000 0.89080  0.12190  0.08600  Biso   1.000  O
  O20      1.0000 0.10880  0.19660  0.70060  Biso   1.000  O
  O21      1.0000 0.88150  0.09730  0.71230  Biso   1.000  O
  O22      1.0000 0.55160  0.21440  0.57800  Biso   1.000  O
  O23      1.0000 0.51480  0.16320  0.73050  Biso   1.000  O
  O24      1.0000 0.65200  0.41310  0.77120  Biso   1.000  O
  O25      1.0000 0.42490  0.30780  0.79230  Biso   1.000  O
  O26      1.0000 0.95790  0.29300  0.90760  Biso   1.000  O
  O27      1.0000 0.02370  0.34930  0.75430  Biso   1.000  O
  O28      1.0000 0.93670  0.23030  0.47330  Biso   1.000  O
  O29      1.0000 0.26230  0.23380  0.46720  Biso   1.000  O
  O30      1.0000 0.88700  0.26570  0.29750  Biso   1.000  O
  O31      1.0000 0.02470  0.19590  0.20140  Biso   1.000  O
  O32      1.0000 0.56040  0.26980  0.01020  Biso   1.000  O
  O33      1.0000 0.23570  0.25620  0.02520  Biso   1.000  O
  O34      1.0000 0.60470  0.22850  0.18940  Biso   1.000  O
  O35      1.0000 0.46440  0.29630  0.28770  Biso   1.000  O
  C17      1.0000 0.06320  0.11440  0.70110  Biso   1.000  C
  C18      1.0000 0.21930  0.03760  0.69210  Biso   1.000  C
  H9       1.0000 0.18010  0.97430  0.69850  Biso   1.000  H
  C19      1.0000 0.41190  0.05390  0.67550  Biso   1.000  C
  H10      1.0000 0.50440  0.00010  0.67280  Biso   1.000  H
  C20      1.0000 0.49460  0.15090  0.66050  Biso   1.000  C
  C21      1.0000 0.46810  0.39030  0.78940  Biso   1.000  C
  C22      1.0000 0.31340  0.46330  0.80680  Biso   1.000  C
  H11      1.0000 0.35360  0.52330  0.80660  Biso   1.000  H
  C23      1.0000 0.12080  0.44790  0.82260  Biso   1.000  C
  H12      1.0000 0.03040  0.49940  0.83150  Biso   1.000  H
  C24      1.0000 0.03140  0.35670  0.82770  Biso   1.000  C
  C25      1.0000 0.11490  0.19820  0.45540  Biso   1.000  C
  C26      1.0000 0.15870  0.11310  0.42550  Biso   1.000  C
  H13      1.0000 0.23070  0.05350  0.46300  Biso   1.000  H
  C27      1.0000 0.10470  0.11440  0.35040  Biso   1.000  C
  H14      1.0000 0.14080  0.05430  0.34070  Biso   1.000  H
  C28      1.0000 0.99470  0.19810  0.27950  Biso   1.000  C
  C29      1.0000 0.38170  0.29580  0.03190  Biso   1.000  C
  C30      1.0000 0.33510  0.37890  0.06280  Biso   1.000  C
  H15      1.0000 0.26400  0.43830  0.02450  Biso   1.000  H
  C31      1.0000 0.38230  0.37950  0.13900  Biso   1.000  C
  H16      1.0000 0.34290  0.43920  0.14900  Biso   1.000  H
  C32      1.0000 0.49040  0.29530  0.20890  Biso   1.000  C
  Cs2      1.0000 0.24804  0.08956  0.91817  Biso   1.000  Cs
  O36      1.0000 0.60480  0.95500  0.89370  Biso   1.000  O
