data_image0
_cell_length_a       9.8606
_cell_length_b       11.6737
_cell_length_c       12.5124
_cell_angle_alpha    66.93
_cell_angle_beta     74.602
_cell_angle_gamma    65.787

_symmetry_space_group_name_H-M    "P 1"
_symmetry_int_tables_number       1

loop_
  _symmetry_equiv_pos_as_xyz
  'x, y, z'

loop_
  _atom_site_label
  _atom_site_occupancy
  _atom_site_fract_x
  _atom_site_fract_y
  _atom_site_fract_z
  _atom_site_thermal_displace_type
  _atom_site_B_iso_or_equiv
  _atom_site_type_symbol
  C1       1.0000 0.73600  0.23760  0.06960  Biso   1.000  C
  C2       1.0000 0.61250  0.37390  0.03480  Biso   1.000  C
  C3       1.0000 0.48970  0.39220  0.98900  Biso   1.000  C
  C4       1.0000 0.62010  0.48480  0.04530  Biso   1.000  C
  F1       1.0000 0.47400  0.28860  0.97840  Biso   1.000  F
  F2       1.0000 0.73890  0.47250  0.08860  Biso   1.000  F
  O1       1.0000 0.74410  0.17730  0.17610  Biso   1.000  O
  O2       1.0000 0.81980  0.20200  0.98710  Biso   1.000  O
  C5       1.0000 0.26400  0.76240  0.93040  Biso   1.000  C
  C6       1.0000 0.38750  0.62610  0.96520  Biso   1.000  C
  C7       1.0000 0.51030  0.60780  0.01100  Biso   1.000  C
  C8       1.0000 0.37990  0.51520  0.95470  Biso   1.000  C
  F3       1.0000 0.52600  0.71140  0.02160  Biso   1.000  F
  F4       1.0000 0.26110  0.52750  0.91140  Biso   1.000  F
  O3       1.0000 0.25590  0.82270  0.82390  Biso   1.000  O
  O4       1.0000 0.18020  0.79800  0.01290  Biso   1.000  O
  Cd1      1.0000 0.00000  0.00000  0.00000  Biso   1.000  Cd
  C9       1.0000 0.32460  0.66020  0.61780  Biso   1.000  C
  C10      1.0000 0.34880  0.52220  0.61910  Biso   1.000  C
  C11      1.0000 0.45730  0.40900  0.67870  Biso   1.000  C
  C12      1.0000 0.47100  0.28310  0.68590  Biso   1.000  C
  C13      1.0000 0.38110  0.26310  0.63120  Biso   1.000  C
  C14      1.0000 0.27790  0.37610  0.56910  Biso   1.000  C
  C15      1.0000 0.26180  0.50080  0.56360  Biso   1.000  C
  C16      1.0000 0.39690  0.12480  0.63830  Biso   1.000  C
  F5       1.0000 0.55330  0.41720  0.73230  Biso   1.000  F
  F6       1.0000 0.57580  0.17720  0.74800  Biso   1.000  F
  F7       1.0000 0.18830  0.36360  0.51290  Biso   1.000  F
  F8       1.0000 0.15670  0.60370  0.50070  Biso   1.000  F
  O5       1.0000 0.43350  0.68170  0.62900  Biso   1.000  O
  O6       1.0000 0.19380  0.73930  0.61180  Biso   1.000  O
  O7       1.0000 0.35470  0.05160  0.73200  Biso   1.000  O
  O8       1.0000 0.44960  0.09130  0.55100  Biso   1.000  O
  C17      1.0000 0.67540  0.33980  0.38220  Biso   1.000  C
  C18      1.0000 0.65120  0.47780  0.38090  Biso   1.000  C
  C19      1.0000 0.54270  0.59100  0.32130  Biso   1.000  C
  C20      1.0000 0.52900  0.71690  0.31410  Biso   1.000  C
  C21      1.0000 0.61890  0.73690  0.36880  Biso   1.000  C
  C22      1.0000 0.72210  0.62390  0.43090  Biso   1.000  C
  C23      1.0000 0.73820  0.49920  0.43640  Biso   1.000  C
  C24      1.0000 0.60310  0.87520  0.36170  Biso   1.000  C
  F9       1.0000 0.44670  0.58280  0.26770  Biso   1.000  F
  F10      1.0000 0.42420  0.82280  0.25200  Biso   1.000  F
  F11      1.0000 0.81170  0.63640  0.48710  Biso   1.000  F
  F12      1.0000 0.84330  0.39630  0.49930  Biso   1.000  F
  O9       1.0000 0.56650  0.31830  0.37100  Biso   1.000  O
  O10      1.0000 0.80620  0.26070  0.38820  Biso   1.000  O
  O11      1.0000 0.64530  0.94840  0.26800  Biso   1.000  O
  O12      1.0000 0.55040  0.90870  0.44900  Biso   1.000  O
  C25      1.0000 0.70640  0.64820  0.74360  Biso   1.000  C
  H1       1.0000 0.67190  0.59870  0.72130  Biso   1.000  H
  C26      1.0000 0.92940  0.45590  0.78760  Biso   1.000  C
  H2       1.0000 0.87850  0.42000  0.76010  Biso   1.000  H
  H3       1.0000 0.02310  0.45470  0.73910  Biso   1.000  H
  H4       1.0000 0.94760  0.40320  0.86700  Biso   1.000  H
  C27      1.0000 0.89610  0.66440  0.81810  Biso   1.000  C
  H5       1.0000 0.81830  0.74600  0.82300  Biso   1.000  H
  H6       1.0000 0.93080  0.61250  0.89330  Biso   1.000  H
  H7       1.0000 0.97790  0.68340  0.76150  Biso   1.000  H
  N1       1.0000 0.83770  0.59050  0.78270  Biso   1.000  N
  O13      1.0000 0.62590  0.76530  0.73470  Biso   1.000  O
  C28      1.0000 0.29360  0.35180  0.25640  Biso   1.000  C
  H8       1.0000 0.32810  0.40130  0.27870  Biso   1.000  H
  C29      1.0000 0.07060  0.54410  0.21240  Biso   1.000  C
  H9       1.0000 0.12150  0.58000  0.23990  Biso   1.000  H
  H10      1.0000 0.97690  0.54530  0.26090  Biso   1.000  H
  H11      1.0000 0.05240  0.59680  0.13300  Biso   1.000  H
  C30      1.0000 0.10390  0.33560  0.18190  Biso   1.000  C
  H12      1.0000 0.18170  0.25400  0.17700  Biso   1.000  H
  H13      1.0000 0.06920  0.38750  0.10670  Biso   1.000  H
  H14      1.0000 0.02210  0.31660  0.23850  Biso   1.000  H
  N2       1.0000 0.16230  0.40950  0.21730  Biso   1.000  N
  O14      1.0000 0.37410  0.23470  0.26530  Biso   1.000  O
