data_image0
_cell_length_a       24.5534
_cell_length_b       9.7877
_cell_length_c       13.5716
_cell_angle_alpha    90
_cell_angle_beta     120.579
_cell_angle_gamma    90

_symmetry_space_group_name_H-M    "P 1"
_symmetry_int_tables_number       1

loop_
  _symmetry_equiv_pos_as_xyz
  'x, y, z'

loop_
  _atom_site_label
  _atom_site_occupancy
  _atom_site_fract_x
  _atom_site_fract_y
  _atom_site_fract_z
  _atom_site_thermal_displace_type
  _atom_site_B_iso_or_equiv
  _atom_site_type_symbol
  Cd1      1.0000 0.24660  0.39001  0.10180  Biso   1.000  Cd
  Cd2      1.0000 0.74384  0.89774  0.64331  Biso   1.000  Cd
  S1       1.0000 0.18480  0.57331  0.22368  Biso   1.000  S
  N1       1.0000 0.14970  0.29000  0.00450  Biso   1.000  N
  N2       1.0000 0.34310  0.48940  0.21700  Biso   1.000  N
  N3       1.0000 0.84110  0.00170  0.73740  Biso   1.000  N
  N4       1.0000 0.64660  0.79310  0.53000  Biso   1.000  N
  O1       1.0000 0.20130  0.58640  0.13290  Biso   1.000  O
  O2       1.0000 0.21270  0.68540  0.30400  Biso   1.000  O
  O3       1.0000 0.21320  0.44650  0.27690  Biso   1.000  O
  O4       1.0000 0.11720  0.57460  0.16830  Biso   1.000  O
  C1       1.0000 0.14060  0.15610  0.00310  Biso   1.000  C
  H1       1.0000 0.17590  0.09960  0.03880  Biso   1.000  H
  C2       1.0000 0.08060  0.09550  0.95080  Biso   1.000  C
  H2       1.0000 0.07640  0.00110  0.95170  Biso   1.000  H
  C3       1.0000 0.02700  0.17940  0.89700  Biso   1.000  C
  C4       1.0000 0.03680  0.31780  0.89650  Biso   1.000  C
  H3       1.0000 0.00230  0.37610  0.85900  Biso   1.000  H
  C5       1.0000 0.09800  0.37200  0.95150  Biso   1.000  C
  H4       1.0000 0.10340  0.46610  0.95190  Biso   1.000  H
  C6       1.0000 0.96210  0.11930  0.84010  Biso   1.000  C
  C7       1.0000 0.90800  0.19860  0.79670  Biso   1.000  C
  H5       1.0000 0.91190  0.29320  0.80240  Biso   1.000  H
  C8       1.0000 0.84890  0.14150  0.74570  Biso   1.000  C
  H6       1.0000 0.81350  0.19790  0.71620  Biso   1.000  H
  C9       1.0000 0.35090  0.62350  0.23280  Biso   1.000  C
  H7       1.0000 0.31500  0.67800  0.20450  Biso   1.000  H
  C10      1.0000 0.40780  0.68500  0.28730  Biso   1.000  C
  H8       1.0000 0.41000  0.77990  0.29050  Biso   1.000  H
  C11      1.0000 0.46330  0.60960  0.33870  Biso   1.000  C
  C12      1.0000 0.45620  0.46620  0.32710  Biso   1.000  C
  H9       1.0000 0.49160  0.40980  0.36060  Biso   1.000  H
  C13      1.0000 0.39640  0.41070  0.26570  Biso   1.000  C
  H10      1.0000 0.39220  0.31630  0.25730  Biso   1.000  H
  C14      1.0000 0.52840  0.67300  0.40250  Biso   1.000  C
  C15      1.0000 0.53520  0.81110  0.42060  Biso   1.000  C
  H11      1.0000 0.49970  0.86690  0.39160  Biso   1.000  H
  C16      1.0000 0.58150  0.59320  0.45000  Biso   1.000  C
  H12      1.0000 0.57880  0.49880  0.44080  Biso   1.000  H
  C17      1.0000 0.89230  0.92470  0.78120  Biso   1.000  C
  H13      1.0000 0.88730  0.83030  0.77730  Biso   1.000  H
  C18      1.0000 0.95370  0.97780  0.83310  Biso   1.000  C
  H14      1.0000 0.98850  0.91970  0.86250  Biso   1.000  H
  C19      1.0000 0.64110  0.65970  0.51410  Biso   1.000  C
  H15      1.0000 0.67770  0.60700  0.54610  Biso   1.000  H
  C20      1.0000 0.59320  0.86580  0.48000  Biso   1.000  C
  H16      1.0000 0.59650  0.96040  0.48690  Biso   1.000  H
  Cd3      1.0000 0.75340  0.39001  0.89820  Biso   1.000  Cd
  Cd4      1.0000 0.25616  0.89774  0.35669  Biso   1.000  Cd
  S2       1.0000 0.81520  0.57331  0.77632  Biso   1.000  S
  N5       1.0000 0.85030  0.29000  0.99550  Biso   1.000  N
  N6       1.0000 0.65690  0.48940  0.78300  Biso   1.000  N
  N7       1.0000 0.15890  0.00170  0.26260  Biso   1.000  N
  N8       1.0000 0.35340  0.79310  0.47000  Biso   1.000  N
  O5       1.0000 0.79870  0.58640  0.86710  Biso   1.000  O
  O6       1.0000 0.78730  0.68540  0.69600  Biso   1.000  O
  O7       1.0000 0.78680  0.44650  0.72310  Biso   1.000  O
  O8       1.0000 0.88280  0.57460  0.83170  Biso   1.000  O
  C21      1.0000 0.85940  0.15610  0.99690  Biso   1.000  C
  H17      1.0000 0.82410  0.09960  0.96120  Biso   1.000  H
  C22      1.0000 0.91940  0.09550  0.04920  Biso   1.000  C
  H18      1.0000 0.92360  0.00110  0.04830  Biso   1.000  H
  C23      1.0000 0.97300  0.17940  0.10300  Biso   1.000  C
  C24      1.0000 0.96320  0.31780  0.10350  Biso   1.000  C
  H19      1.0000 0.99770  0.37610  0.14100  Biso   1.000  H
  C25      1.0000 0.90200  0.37200  0.04850  Biso   1.000  C
  H20      1.0000 0.89660  0.46610  0.04810  Biso   1.000  H
  C26      1.0000 0.03790  0.11930  0.15990  Biso   1.000  C
  C27      1.0000 0.09200  0.19860  0.20330  Biso   1.000  C
  H21      1.0000 0.08810  0.29320  0.19760  Biso   1.000  H
  C28      1.0000 0.15110  0.14150  0.25430  Biso   1.000  C
  H22      1.0000 0.18650  0.19790  0.28380  Biso   1.000  H
  C29      1.0000 0.64910  0.62350  0.76720  Biso   1.000  C
  H23      1.0000 0.68500  0.67800  0.79550  Biso   1.000  H
  C30      1.0000 0.59220  0.68500  0.71270  Biso   1.000  C
  H24      1.0000 0.59000  0.77990  0.70950  Biso   1.000  H
  C31      1.0000 0.53670  0.60960  0.66130  Biso   1.000  C
  C32      1.0000 0.54380  0.46620  0.67290  Biso   1.000  C
  H25      1.0000 0.50840  0.40980  0.63940  Biso   1.000  H
  C33      1.0000 0.60360  0.41070  0.73430  Biso   1.000  C
  H26      1.0000 0.60780  0.31630  0.74270  Biso   1.000  H
  C34      1.0000 0.47160  0.67300  0.59750  Biso   1.000  C
  C35      1.0000 0.46480  0.81110  0.57940  Biso   1.000  C
  H27      1.0000 0.50030  0.86690  0.60840  Biso   1.000  H
  C36      1.0000 0.41850  0.59320  0.55000  Biso   1.000  C
  H28      1.0000 0.42120  0.49880  0.55920  Biso   1.000  H
  C37      1.0000 0.10770  0.92470  0.21880  Biso   1.000  C
  H29      1.0000 0.11270  0.83030  0.22270  Biso   1.000  H
  C38      1.0000 0.04630  0.97780  0.16690  Biso   1.000  C
  H30      1.0000 0.01150  0.91970  0.13750  Biso   1.000  H
  C39      1.0000 0.35890  0.65970  0.48590  Biso   1.000  C
  H31      1.0000 0.32230  0.60700  0.45390  Biso   1.000  H
  C40      1.0000 0.40680  0.86580  0.52000  Biso   1.000  C
  H32      1.0000 0.40350  0.96040  0.51310  Biso   1.000  H
  Cd5      1.0000 0.74660  0.89001  0.10180  Biso   1.000  Cd
  Cd6      1.0000 0.24384  0.39774  0.64331  Biso   1.000  Cd
  S3       1.0000 0.68480  0.07331  0.22368  Biso   1.000  S
  N9       1.0000 0.64970  0.79000  0.00450  Biso   1.000  N
  N10      1.0000 0.84310  0.98940  0.21700  Biso   1.000  N
  N11      1.0000 0.34110  0.50170  0.73740  Biso   1.000  N
  N12      1.0000 0.14660  0.29310  0.53000  Biso   1.000  N
  O9       1.0000 0.70130  0.08640  0.13290  Biso   1.000  O
  O10      1.0000 0.71270  0.18540  0.30400  Biso   1.000  O
  O11      1.0000 0.71320  0.94650  0.27690  Biso   1.000  O
  O12      1.0000 0.61720  0.07460  0.16830  Biso   1.000  O
  C41      1.0000 0.64060  0.65610  0.00310  Biso   1.000  C
  H33      1.0000 0.67590  0.59960  0.03880  Biso   1.000  H
  C42      1.0000 0.58060  0.59550  0.95080  Biso   1.000  C
  H34      1.0000 0.57640  0.50110  0.95170  Biso   1.000  H
  C43      1.0000 0.52700  0.67940  0.89700  Biso   1.000  C
  C44      1.0000 0.53680  0.81780  0.89650  Biso   1.000  C
  H35      1.0000 0.50230  0.87610  0.85900  Biso   1.000  H
  C45      1.0000 0.59800  0.87200  0.95150  Biso   1.000  C
  H36      1.0000 0.60340  0.96610  0.95190  Biso   1.000  H
  C46      1.0000 0.46210  0.61930  0.84010  Biso   1.000  C
  C47      1.0000 0.40800  0.69860  0.79670  Biso   1.000  C
  H37      1.0000 0.41190  0.79320  0.80240  Biso   1.000  H
  C48      1.0000 0.34890  0.64150  0.74570  Biso   1.000  C
  H38      1.0000 0.31350  0.69790  0.71620  Biso   1.000  H
  C49      1.0000 0.85090  0.12350  0.23280  Biso   1.000  C
  H39      1.0000 0.81500  0.17800  0.20450  Biso   1.000  H
  C50      1.0000 0.90780  0.18500  0.28730  Biso   1.000  C
  H40      1.0000 0.91000  0.27990  0.29050  Biso   1.000  H
  C51      1.0000 0.96330  0.10960  0.33870  Biso   1.000  C
  C52      1.0000 0.95620  0.96620  0.32710  Biso   1.000  C
  H41      1.0000 0.99160  0.90980  0.36060  Biso   1.000  H
  C53      1.0000 0.89640  0.91070  0.26570  Biso   1.000  C
  H42      1.0000 0.89220  0.81630  0.25730  Biso   1.000  H
  C54      1.0000 0.02840  0.17300  0.40250  Biso   1.000  C
  C55      1.0000 0.03520  0.31110  0.42060  Biso   1.000  C
  H43      1.0000 0.99970  0.36690  0.39160  Biso   1.000  H
  C56      1.0000 0.08150  0.09320  0.45000  Biso   1.000  C
  H44      1.0000 0.07880  0.99880  0.44080  Biso   1.000  H
  C57      1.0000 0.39230  0.42470  0.78120  Biso   1.000  C
  H45      1.0000 0.38730  0.33030  0.77730  Biso   1.000  H
  C58      1.0000 0.45370  0.47780  0.83310  Biso   1.000  C
  H46      1.0000 0.48850  0.41970  0.86250  Biso   1.000  H
  C59      1.0000 0.14110  0.15970  0.51410  Biso   1.000  C
  H47      1.0000 0.17770  0.10700  0.54610  Biso   1.000  H
  C60      1.0000 0.09320  0.36580  0.48000  Biso   1.000  C
  H48      1.0000 0.09650  0.46040  0.48690  Biso   1.000  H
  Cd7      1.0000 0.25340  0.89001  0.89820  Biso   1.000  Cd
  Cd8      1.0000 0.75616  0.39774  0.35669  Biso   1.000  Cd
  S4       1.0000 0.31520  0.07331  0.77632  Biso   1.000  S
  N13      1.0000 0.35030  0.79000  0.99550  Biso   1.000  N
  N14      1.0000 0.15690  0.98940  0.78300  Biso   1.000  N
  N15      1.0000 0.65890  0.50170  0.26260  Biso   1.000  N
  N16      1.0000 0.85340  0.29310  0.47000  Biso   1.000  N
  O13      1.0000 0.29870  0.08640  0.86710  Biso   1.000  O
  O14      1.0000 0.28730  0.18540  0.69600  Biso   1.000  O
  O15      1.0000 0.28680  0.94650  0.72310  Biso   1.000  O
  O16      1.0000 0.38280  0.07460  0.83170  Biso   1.000  O
  C61      1.0000 0.35940  0.65610  0.99690  Biso   1.000  C
  H49      1.0000 0.32410  0.59960  0.96120  Biso   1.000  H
  C62      1.0000 0.41940  0.59550  0.04920  Biso   1.000  C
  H50      1.0000 0.42360  0.50110  0.04830  Biso   1.000  H
  C63      1.0000 0.47300  0.67940  0.10300  Biso   1.000  C
  C64      1.0000 0.46320  0.81780  0.10350  Biso   1.000  C
  H51      1.0000 0.49770  0.87610  0.14100  Biso   1.000  H
  C65      1.0000 0.40200  0.87200  0.04850  Biso   1.000  C
  H52      1.0000 0.39660  0.96610  0.04810  Biso   1.000  H
  C66      1.0000 0.53790  0.61930  0.15990  Biso   1.000  C
  C67      1.0000 0.59200  0.69860  0.20330  Biso   1.000  C
  H53      1.0000 0.58810  0.79320  0.19760  Biso   1.000  H
  C68      1.0000 0.65110  0.64150  0.25430  Biso   1.000  C
  H54      1.0000 0.68650  0.69790  0.28380  Biso   1.000  H
  C69      1.0000 0.14910  0.12350  0.76720  Biso   1.000  C
  H55      1.0000 0.18500  0.17800  0.79550  Biso   1.000  H
  C70      1.0000 0.09220  0.18500  0.71270  Biso   1.000  C
  H56      1.0000 0.09000  0.27990  0.70950  Biso   1.000  H
  C71      1.0000 0.03670  0.10960  0.66130  Biso   1.000  C
  C72      1.0000 0.04380  0.96620  0.67290  Biso   1.000  C
  H57      1.0000 0.00840  0.90980  0.63940  Biso   1.000  H
  C73      1.0000 0.10360  0.91070  0.73430  Biso   1.000  C
  H58      1.0000 0.10780  0.81630  0.74270  Biso   1.000  H
  C74      1.0000 0.97160  0.17300  0.59750  Biso   1.000  C
  C75      1.0000 0.96480  0.31110  0.57940  Biso   1.000  C
  H59      1.0000 0.00030  0.36690  0.60840  Biso   1.000  H
  C76      1.0000 0.91850  0.09320  0.55000  Biso   1.000  C
  H60      1.0000 0.92120  0.99880  0.55920  Biso   1.000  H
  C77      1.0000 0.60770  0.42470  0.21880  Biso   1.000  C
  H61      1.0000 0.61270  0.33030  0.22270  Biso   1.000  H
  C78      1.0000 0.54630  0.47780  0.16690  Biso   1.000  C
  H62      1.0000 0.51150  0.41970  0.13750  Biso   1.000  H
  C79      1.0000 0.85890  0.15970  0.48590  Biso   1.000  C
  H63      1.0000 0.82230  0.10700  0.45390  Biso   1.000  H
  C80      1.0000 0.90680  0.36580  0.52000  Biso   1.000  C
  H64      1.0000 0.90350  0.46040  0.51310  Biso   1.000  H
