data_image0
_cell_length_a       9.692
_cell_length_b       9.736
_cell_length_c       7.916
_cell_angle_alpha    90
_cell_angle_beta     120.92
_cell_angle_gamma    90

_symmetry_space_group_name_H-M    "P 1"
_symmetry_int_tables_number       1

loop_
  _symmetry_equiv_pos_as_xyz
  'x, y, z'

loop_
  _atom_site_label
  _atom_site_occupancy
  _atom_site_fract_x
  _atom_site_fract_y
  _atom_site_fract_z
  _atom_site_thermal_displace_type
  _atom_site_B_iso_or_equiv
  _atom_site_type_symbol
  N1       1.0000 0.14940  0.14950  0.00380  Biso   1.000  N
  C1       1.0000 0.29760  0.17050  0.15750  Biso   1.000  C
  H1       1.0000 0.33420  0.11680  0.26970  Biso   1.000  H
  C2       1.0000 0.10300  0.23040  0.84630  Biso   1.000  C
  H2       1.0000 0.00060  0.21910  0.73670  Biso   1.000  H
  N2       1.0000 0.64940  0.64950  0.00380  Biso   1.000  N
  C3       1.0000 0.79760  0.67050  0.15750  Biso   1.000  C
  H3       1.0000 0.83420  0.61680  0.26970  Biso   1.000  H
  C4       1.0000 0.60300  0.73040  0.84630  Biso   1.000  C
  H4       1.0000 0.50060  0.71910  0.73670  Biso   1.000  H
  N3       1.0000 0.85060  0.14950  0.99620  Biso   1.000  N
  C5       1.0000 0.70240  0.17050  0.84250  Biso   1.000  C
  H5       1.0000 0.66580  0.11680  0.73030  Biso   1.000  H
  C6       1.0000 0.89700  0.23040  0.15370  Biso   1.000  C
  H6       1.0000 0.99940  0.21910  0.26330  Biso   1.000  H
  N4       1.0000 0.35060  0.64950  0.99620  Biso   1.000  N
  C7       1.0000 0.20240  0.67050  0.84250  Biso   1.000  C
  H7       1.0000 0.16580  0.61680  0.73030  Biso   1.000  H
  C8       1.0000 0.39700  0.73040  0.15370  Biso   1.000  C
  H8       1.0000 0.49940  0.71910  0.26330  Biso   1.000  H
  N5       1.0000 0.85060  0.85050  0.99620  Biso   1.000  N
  C9       1.0000 0.70240  0.82950  0.84250  Biso   1.000  C
  H9       1.0000 0.66580  0.88320  0.73030  Biso   1.000  H
  C10      1.0000 0.89700  0.76960  0.15370  Biso   1.000  C
  H10      1.0000 0.99940  0.78090  0.26330  Biso   1.000  H
  N6       1.0000 0.35060  0.35050  0.99620  Biso   1.000  N
  C11      1.0000 0.20240  0.32950  0.84250  Biso   1.000  C
  H11      1.0000 0.16580  0.38320  0.73030  Biso   1.000  H
  C12      1.0000 0.39700  0.26960  0.15370  Biso   1.000  C
  H12      1.0000 0.49940  0.28090  0.26330  Biso   1.000  H
  N7       1.0000 0.14940  0.85050  0.00380  Biso   1.000  N
  C13      1.0000 0.29760  0.82950  0.15750  Biso   1.000  C
  H13      1.0000 0.33420  0.88320  0.26970  Biso   1.000  H
  C14      1.0000 0.10300  0.76960  0.84630  Biso   1.000  C
  H14      1.0000 0.00060  0.78090  0.73670  Biso   1.000  H
  N8       1.0000 0.64940  0.35050  0.00380  Biso   1.000  N
  C15      1.0000 0.79760  0.32950  0.15750  Biso   1.000  C
  H15      1.0000 0.83420  0.38320  0.26970  Biso   1.000  H
  C16      1.0000 0.60300  0.26960  0.84630  Biso   1.000  C
  H16      1.0000 0.50060  0.28090  0.73670  Biso   1.000  H
  Cu1      1.0000 0.00000  0.00000  0.00000  Biso   1.000  Cu
  Cu2      1.0000 0.50000  0.50000  0.00000  Biso   1.000  Cu
