data_image0
_cell_length_a       6.2979
_cell_length_b       7.2048
_cell_length_c       10.6271
_cell_angle_alpha    94.467
_cell_angle_beta     100.32
_cell_angle_gamma    97.741

_symmetry_space_group_name_H-M    "P 1"
_symmetry_int_tables_number       1

loop_
  _symmetry_equiv_pos_as_xyz
  'x, y, z'

loop_
  _atom_site_label
  _atom_site_occupancy
  _atom_site_fract_x
  _atom_site_fract_y
  _atom_site_fract_z
  _atom_site_thermal_displace_type
  _atom_site_B_iso_or_equiv
  _atom_site_type_symbol
  Rb1      1.0000 0.33584  0.35043  0.22507  Biso   1.000  Rb
  O1       1.0000 0.22080  0.65730  0.06430  Biso   1.000  O
  O2       1.0000 0.16060  0.83930  0.85010  Biso   1.000  O
  O3       1.0000 0.26270  0.11320  0.97563  Biso   1.000  O
  O4       1.0000 0.31400  0.93510  0.18317  Biso   1.000  O
  C1       1.0000 0.25200  0.82720  0.07430  Biso   1.000  C
  C2       1.0000 0.22250  0.93980  0.95640  Biso   1.000  C
  H1       1.0000 0.33600  0.87460  0.24000  Biso   1.000  H
  H2       1.0000 0.45790  0.47330  0.27050  Biso   1.000  H
  H3       1.0000 0.27700  0.39070  0.13840  Biso   1.000  H
  H4       1.0000 0.29220  0.26990  0.23810  Biso   1.000  H
  H5       1.0000 0.45870  0.29260  0.16390  Biso   1.000  H
  O5       1.0000 0.26310  0.59840  0.57387  Biso   1.000  O
  O6       1.0000 0.00490  0.42710  0.65114  Biso   1.000  O
  C3       1.0000 0.08340  0.51070  0.56320  Biso   1.000  C
  H6       1.0000 0.09260  0.43570  0.72340  Biso   1.000  H
  O7       1.0000 0.73690  0.40160  0.42613  Biso   1.000  O
  O8       1.0000 0.99510  0.57290  0.34886  Biso   1.000  O
  C4       1.0000 0.91660  0.48930  0.43680  Biso   1.000  C
  H7       1.0000 0.90740  0.56430  0.27660  Biso   1.000  H
