data_image0
_cell_length_a       13.4204
_cell_length_b       16.5076
_cell_length_c       28.1263
_cell_angle_alpha    90
_cell_angle_beta     90
_cell_angle_gamma    90

_symmetry_space_group_name_H-M    "P 1"
_symmetry_int_tables_number       1

loop_
  _symmetry_equiv_pos_as_xyz
  'x, y, z'

loop_
  _atom_site_label
  _atom_site_occupancy
  _atom_site_fract_x
  _atom_site_fract_y
  _atom_site_fract_z
  _atom_site_thermal_displace_type
  _atom_site_B_iso_or_equiv
  _atom_site_type_symbol
  C1       1.0000 0.91640  0.03620  0.07230  Biso   1.000  C
  H1       1.0000 0.87520  0.99760  0.05530  Biso   1.000  H
  H2       1.0000 0.87440  0.06540  0.09450  Biso   1.000  H
  C2       1.0000 0.99580  0.99300  0.09830  Biso   1.000  C
  H3       1.0000 0.96690  0.95170  0.11860  Biso   1.000  H
  H4       1.0000 0.04070  0.96690  0.07600  Biso   1.000  H
  C3       1.0000 0.12450  0.01260  0.15380  Biso   1.000  C
  H5       1.0000 0.17120  0.98480  0.13320  Biso   1.000  H
  H6       1.0000 0.09520  0.97310  0.17520  Biso   1.000  H
  C4       1.0000 0.17700  0.07680  0.18160  Biso   1.000  C
  H7       1.0000 0.23230  0.05300  0.19900  Biso   1.000  H
  H8       1.0000 0.20350  0.11740  0.16010  Biso   1.000  H
  C5       1.0000 0.15290  0.17730  0.24120  Biso   1.000  C
  H9       1.0000 0.17890  0.21860  0.22000  Biso   1.000  H
  H10      1.0000 0.20780  0.15610  0.25990  Biso   1.000  H
  C6       1.0000 0.07590  0.21330  0.27330  Biso   1.000  C
  H11      1.0000 0.04690  0.17140  0.29320  Biso   1.000  H
  H12      1.0000 0.10610  0.25370  0.29380  Biso   1.000  H
  O1       1.0000 0.04900  0.05070  0.12640  Biso   1.000  O
  O2       1.0000 0.10910  0.11380  0.21419  Biso   1.000  O
  O3       1.0000 0.91710  0.98110  0.21170  Biso   1.000  O
  O4       1.0000 0.86320  0.04470  0.21840  Biso   1.000  O
  O5       1.0000 0.89770  0.92660  0.23820  Biso   1.000  O
  C7       1.0000 0.89180  0.13660  0.01220  Biso   1.000  C
  H13      1.0000 0.84810  0.16690  0.03320  Biso   1.000  H
  H14      1.0000 0.85120  0.10000  0.99340  Biso   1.000  H
  C8       1.0000 0.94570  0.19260  0.98080  Biso   1.000  C
  H15      1.0000 0.99140  0.16250  0.96070  Biso   1.000  H
  H16      1.0000 0.89880  0.22080  0.96040  Biso   1.000  H
  O6       1.0000 0.96060  0.09240  0.03908  Biso   1.000  O
  Ag1      1.0000 0.94690  0.14135  0.18257  Biso   1.000  Ag
  C9       1.0000 0.08360  0.46380  0.07230  Biso   1.000  C
  H17      1.0000 0.12480  0.50240  0.05530  Biso   1.000  H
  H18      1.0000 0.12560  0.43460  0.09450  Biso   1.000  H
  C10      1.0000 0.00420  0.50700  0.09830  Biso   1.000  C
  H19      1.0000 0.03310  0.54830  0.11860  Biso   1.000  H
  H20      1.0000 0.95930  0.53310  0.07600  Biso   1.000  H
  C11      1.0000 0.87550  0.48740  0.15380  Biso   1.000  C
  H21      1.0000 0.82880  0.51520  0.13320  Biso   1.000  H
  H22      1.0000 0.90480  0.52690  0.17520  Biso   1.000  H
  C12      1.0000 0.82300  0.42320  0.18160  Biso   1.000  C
  H23      1.0000 0.76770  0.44700  0.19900  Biso   1.000  H
  H24      1.0000 0.79650  0.38260  0.16010  Biso   1.000  H
  C13      1.0000 0.84710  0.32270  0.24120  Biso   1.000  C
  H25      1.0000 0.82110  0.28140  0.22000  Biso   1.000  H
  H26      1.0000 0.79220  0.34390  0.25990  Biso   1.000  H
  C14      1.0000 0.92410  0.28670  0.27330  Biso   1.000  C
  H27      1.0000 0.95310  0.32860  0.29320  Biso   1.000  H
  H28      1.0000 0.89390  0.24630  0.29380  Biso   1.000  H
  O7       1.0000 0.95100  0.44930  0.12640  Biso   1.000  O
  O8       1.0000 0.89090  0.38620  0.21419  Biso   1.000  O
  O9       1.0000 0.08290  0.51890  0.21170  Biso   1.000  O
  O10      1.0000 0.13680  0.45530  0.21840  Biso   1.000  O
  O11      1.0000 0.10230  0.57340  0.23820  Biso   1.000  O
  C15      1.0000 0.10820  0.36340  0.01220  Biso   1.000  C
  H29      1.0000 0.15190  0.33310  0.03320  Biso   1.000  H
  H30      1.0000 0.14880  0.40000  0.99340  Biso   1.000  H
  C16      1.0000 0.05430  0.30740  0.98080  Biso   1.000  C
  H31      1.0000 0.00860  0.33750  0.96070  Biso   1.000  H
  H32      1.0000 0.10120  0.27920  0.96040  Biso   1.000  H
  O12      1.0000 0.03940  0.40760  0.03908  Biso   1.000  O
  Ag2      1.0000 0.05310  0.35865  0.18257  Biso   1.000  Ag
  C17      1.0000 0.08360  0.53620  0.42770  Biso   1.000  C
  H33      1.0000 0.12480  0.49760  0.44470  Biso   1.000  H
  H34      1.0000 0.12560  0.56540  0.40550  Biso   1.000  H
  C18      1.0000 0.00420  0.49300  0.40170  Biso   1.000  C
  H35      1.0000 0.03310  0.45170  0.38140  Biso   1.000  H
  H36      1.0000 0.95930  0.46690  0.42400  Biso   1.000  H
  C19      1.0000 0.87550  0.51260  0.34620  Biso   1.000  C
  H37      1.0000 0.82880  0.48480  0.36680  Biso   1.000  H
  H38      1.0000 0.90480  0.47310  0.32480  Biso   1.000  H
  C20      1.0000 0.82300  0.57680  0.31840  Biso   1.000  C
  H39      1.0000 0.76770  0.55300  0.30100  Biso   1.000  H
  H40      1.0000 0.79650  0.61740  0.33990  Biso   1.000  H
  C21      1.0000 0.84710  0.67730  0.25880  Biso   1.000  C
  H41      1.0000 0.82110  0.71860  0.28000  Biso   1.000  H
  H42      1.0000 0.79220  0.65610  0.24010  Biso   1.000  H
  C22      1.0000 0.92410  0.71330  0.22670  Biso   1.000  C
  H43      1.0000 0.95310  0.67140  0.20680  Biso   1.000  H
  H44      1.0000 0.89390  0.75370  0.20620  Biso   1.000  H
  O13      1.0000 0.95100  0.55070  0.37360  Biso   1.000  O
  O14      1.0000 0.89090  0.61380  0.28581  Biso   1.000  O
  O15      1.0000 0.08290  0.48110  0.28830  Biso   1.000  O
  O16      1.0000 0.13680  0.54470  0.28160  Biso   1.000  O
  O17      1.0000 0.10230  0.42660  0.26180  Biso   1.000  O
  C23      1.0000 0.10820  0.63660  0.48780  Biso   1.000  C
  H45      1.0000 0.15190  0.66690  0.46680  Biso   1.000  H
  H46      1.0000 0.14880  0.60000  0.50660  Biso   1.000  H
  C24      1.0000 0.05430  0.69260  0.51920  Biso   1.000  C
  H47      1.0000 0.00860  0.66250  0.53930  Biso   1.000  H
  H48      1.0000 0.10120  0.72080  0.53960  Biso   1.000  H
  O18      1.0000 0.03940  0.59240  0.46092  Biso   1.000  O
  Ag3      1.0000 0.05310  0.64135  0.31743  Biso   1.000  Ag
  C25      1.0000 0.91640  0.96380  0.42770  Biso   1.000  C
  H49      1.0000 0.87520  0.00240  0.44470  Biso   1.000  H
  H50      1.0000 0.87440  0.93460  0.40550  Biso   1.000  H
  C26      1.0000 0.99580  0.00700  0.40170  Biso   1.000  C
  H51      1.0000 0.96690  0.04830  0.38140  Biso   1.000  H
  H52      1.0000 0.04070  0.03310  0.42400  Biso   1.000  H
  C27      1.0000 0.12450  0.98740  0.34620  Biso   1.000  C
  H53      1.0000 0.17120  0.01520  0.36680  Biso   1.000  H
  H54      1.0000 0.09520  0.02690  0.32480  Biso   1.000  H
  C28      1.0000 0.17700  0.92320  0.31840  Biso   1.000  C
  H55      1.0000 0.23230  0.94700  0.30100  Biso   1.000  H
  H56      1.0000 0.20350  0.88260  0.33990  Biso   1.000  H
  C29      1.0000 0.15290  0.82270  0.25880  Biso   1.000  C
  H57      1.0000 0.17890  0.78140  0.28000  Biso   1.000  H
  H58      1.0000 0.20780  0.84390  0.24010  Biso   1.000  H
  C30      1.0000 0.07590  0.78670  0.22670  Biso   1.000  C
  H59      1.0000 0.04690  0.82860  0.20680  Biso   1.000  H
  H60      1.0000 0.10610  0.74630  0.20620  Biso   1.000  H
  O19      1.0000 0.04900  0.94930  0.37360  Biso   1.000  O
  O20      1.0000 0.10910  0.88620  0.28581  Biso   1.000  O
  O21      1.0000 0.91710  0.01890  0.28830  Biso   1.000  O
  O22      1.0000 0.86320  0.95530  0.28160  Biso   1.000  O
  O23      1.0000 0.89770  0.07340  0.26180  Biso   1.000  O
  C31      1.0000 0.89180  0.86340  0.48780  Biso   1.000  C
  H61      1.0000 0.84810  0.83310  0.46680  Biso   1.000  H
  H62      1.0000 0.85120  0.90000  0.50660  Biso   1.000  H
  C32      1.0000 0.94570  0.80740  0.51920  Biso   1.000  C
  H63      1.0000 0.99140  0.83750  0.53930  Biso   1.000  H
  H64      1.0000 0.89880  0.77920  0.53960  Biso   1.000  H
  O24      1.0000 0.96060  0.90760  0.46092  Biso   1.000  O
  Ag4      1.0000 0.94690  0.85865  0.31743  Biso   1.000  Ag
  O25      1.0000 0.00000  0.25000  0.24429  Biso   1.000  O
  O26      1.0000 0.00000  0.25000  0.00920  Biso   1.000  O
  O27      1.0000 0.00000  0.75000  0.25571  Biso   1.000  O
  O28      1.0000 0.00000  0.75000  0.49080  Biso   1.000  O
  N1       1.0000 0.89480  0.00000  0.25000  Biso   1.000  N
  N2       1.0000 0.10520  0.50000  0.25000  Biso   1.000  N
  C33      1.0000 0.41640  0.53620  0.57230  Biso   1.000  C
  H65      1.0000 0.37520  0.49760  0.55530  Biso   1.000  H
  H66      1.0000 0.37440  0.56540  0.59450  Biso   1.000  H
  C34      1.0000 0.49580  0.49300  0.59830  Biso   1.000  C
  H67      1.0000 0.46690  0.45170  0.61860  Biso   1.000  H
  H68      1.0000 0.54070  0.46690  0.57600  Biso   1.000  H
  C35      1.0000 0.62450  0.51260  0.65380  Biso   1.000  C
  H69      1.0000 0.67120  0.48480  0.63320  Biso   1.000  H
  H70      1.0000 0.59520  0.47310  0.67520  Biso   1.000  H
  C36      1.0000 0.67700  0.57680  0.68160  Biso   1.000  C
  H71      1.0000 0.73230  0.55300  0.69900  Biso   1.000  H
  H72      1.0000 0.70350  0.61740  0.66010  Biso   1.000  H
  C37      1.0000 0.65290  0.67730  0.74120  Biso   1.000  C
  H73      1.0000 0.67890  0.71860  0.72000  Biso   1.000  H
  H74      1.0000 0.70780  0.65610  0.75990  Biso   1.000  H
  C38      1.0000 0.57590  0.71330  0.77330  Biso   1.000  C
  H75      1.0000 0.54690  0.67140  0.79320  Biso   1.000  H
  H76      1.0000 0.60610  0.75370  0.79380  Biso   1.000  H
  O29      1.0000 0.54900  0.55070  0.62640  Biso   1.000  O
  O30      1.0000 0.60910  0.61380  0.71419  Biso   1.000  O
  O31      1.0000 0.41710  0.48110  0.71170  Biso   1.000  O
  O32      1.0000 0.36320  0.54470  0.71840  Biso   1.000  O
  O33      1.0000 0.39770  0.42660  0.73820  Biso   1.000  O
  C39      1.0000 0.39180  0.63660  0.51220  Biso   1.000  C
  H77      1.0000 0.34810  0.66690  0.53320  Biso   1.000  H
  H78      1.0000 0.35120  0.60000  0.49340  Biso   1.000  H
  C40      1.0000 0.44570  0.69260  0.48080  Biso   1.000  C
  H79      1.0000 0.49140  0.66250  0.46070  Biso   1.000  H
  H80      1.0000 0.39880  0.72080  0.46040  Biso   1.000  H
  O34      1.0000 0.46060  0.59240  0.53908  Biso   1.000  O
  Ag5      1.0000 0.44690  0.64135  0.68257  Biso   1.000  Ag
  C41      1.0000 0.58360  0.96380  0.57230  Biso   1.000  C
  H81      1.0000 0.62480  0.00240  0.55530  Biso   1.000  H
  H82      1.0000 0.62560  0.93460  0.59450  Biso   1.000  H
  C42      1.0000 0.50420  0.00700  0.59830  Biso   1.000  C
  H83      1.0000 0.53310  0.04830  0.61860  Biso   1.000  H
  H84      1.0000 0.45930  0.03310  0.57600  Biso   1.000  H
  C43      1.0000 0.37550  0.98740  0.65380  Biso   1.000  C
  H85      1.0000 0.32880  0.01520  0.63320  Biso   1.000  H
  H86      1.0000 0.40480  0.02690  0.67520  Biso   1.000  H
  C44      1.0000 0.32300  0.92320  0.68160  Biso   1.000  C
  H87      1.0000 0.26770  0.94700  0.69900  Biso   1.000  H
  H88      1.0000 0.29650  0.88260  0.66010  Biso   1.000  H
  C45      1.0000 0.34710  0.82270  0.74120  Biso   1.000  C
  H89      1.0000 0.32110  0.78140  0.72000  Biso   1.000  H
  H90      1.0000 0.29220  0.84390  0.75990  Biso   1.000  H
  C46      1.0000 0.42410  0.78670  0.77330  Biso   1.000  C
  H91      1.0000 0.45310  0.82860  0.79320  Biso   1.000  H
  H92      1.0000 0.39390  0.74630  0.79380  Biso   1.000  H
  O35      1.0000 0.45100  0.94930  0.62640  Biso   1.000  O
  O36      1.0000 0.39090  0.88620  0.71419  Biso   1.000  O
  O37      1.0000 0.58290  0.01890  0.71170  Biso   1.000  O
  O38      1.0000 0.63680  0.95530  0.71840  Biso   1.000  O
  O39      1.0000 0.60230  0.07340  0.73820  Biso   1.000  O
  C47      1.0000 0.60820  0.86340  0.51220  Biso   1.000  C
  H93      1.0000 0.65190  0.83310  0.53320  Biso   1.000  H
  H94      1.0000 0.64880  0.90000  0.49340  Biso   1.000  H
  C48      1.0000 0.55430  0.80740  0.48080  Biso   1.000  C
  H95      1.0000 0.50860  0.83750  0.46070  Biso   1.000  H
  H96      1.0000 0.60120  0.77920  0.46040  Biso   1.000  H
  O40      1.0000 0.53940  0.90760  0.53908  Biso   1.000  O
  Ag6      1.0000 0.55310  0.85865  0.68257  Biso   1.000  Ag
  C49      1.0000 0.58360  0.03620  0.92770  Biso   1.000  C
  H97      1.0000 0.62480  0.99760  0.94470  Biso   1.000  H
  H98      1.0000 0.62560  0.06540  0.90550  Biso   1.000  H
  C50      1.0000 0.50420  0.99300  0.90170  Biso   1.000  C
  H99      1.0000 0.53310  0.95170  0.88140  Biso   1.000  H
  H100     1.0000 0.45930  0.96690  0.92400  Biso   1.000  H
  C51      1.0000 0.37550  0.01260  0.84620  Biso   1.000  C
  H101     1.0000 0.32880  0.98480  0.86680  Biso   1.000  H
  H102     1.0000 0.40480  0.97310  0.82480  Biso   1.000  H
  C52      1.0000 0.32300  0.07680  0.81840  Biso   1.000  C
  H103     1.0000 0.26770  0.05300  0.80100  Biso   1.000  H
  H104     1.0000 0.29650  0.11740  0.83990  Biso   1.000  H
  C53      1.0000 0.34710  0.17730  0.75880  Biso   1.000  C
  H105     1.0000 0.32110  0.21860  0.78000  Biso   1.000  H
  H106     1.0000 0.29220  0.15610  0.74010  Biso   1.000  H
  C54      1.0000 0.42410  0.21330  0.72670  Biso   1.000  C
  H107     1.0000 0.45310  0.17140  0.70680  Biso   1.000  H
  H108     1.0000 0.39390  0.25370  0.70620  Biso   1.000  H
  O41      1.0000 0.45100  0.05070  0.87360  Biso   1.000  O
  O42      1.0000 0.39090  0.11380  0.78581  Biso   1.000  O
  O43      1.0000 0.58290  0.98110  0.78830  Biso   1.000  O
  O44      1.0000 0.63680  0.04470  0.78160  Biso   1.000  O
  O45      1.0000 0.60230  0.92660  0.76180  Biso   1.000  O
  C55      1.0000 0.60820  0.13660  0.98780  Biso   1.000  C
  H109     1.0000 0.65190  0.16690  0.96680  Biso   1.000  H
  H110     1.0000 0.64880  0.10000  0.00660  Biso   1.000  H
  C56      1.0000 0.55430  0.19260  0.01920  Biso   1.000  C
  H111     1.0000 0.50860  0.16250  0.03930  Biso   1.000  H
  H112     1.0000 0.60120  0.22080  0.03960  Biso   1.000  H
  O46      1.0000 0.53940  0.09240  0.96092  Biso   1.000  O
  Ag7      1.0000 0.55310  0.14135  0.81743  Biso   1.000  Ag
  C57      1.0000 0.41640  0.46380  0.92770  Biso   1.000  C
  H113     1.0000 0.37520  0.50240  0.94470  Biso   1.000  H
  H114     1.0000 0.37440  0.43460  0.90550  Biso   1.000  H
  C58      1.0000 0.49580  0.50700  0.90170  Biso   1.000  C
  H115     1.0000 0.46690  0.54830  0.88140  Biso   1.000  H
  H116     1.0000 0.54070  0.53310  0.92400  Biso   1.000  H
  C59      1.0000 0.62450  0.48740  0.84620  Biso   1.000  C
  H117     1.0000 0.67120  0.51520  0.86680  Biso   1.000  H
  H118     1.0000 0.59520  0.52690  0.82480  Biso   1.000  H
  C60      1.0000 0.67700  0.42320  0.81840  Biso   1.000  C
  H119     1.0000 0.73230  0.44700  0.80100  Biso   1.000  H
  H120     1.0000 0.70350  0.38260  0.83990  Biso   1.000  H
  C61      1.0000 0.65290  0.32270  0.75880  Biso   1.000  C
  H121     1.0000 0.67890  0.28140  0.78000  Biso   1.000  H
  H122     1.0000 0.70780  0.34390  0.74010  Biso   1.000  H
  C62      1.0000 0.57590  0.28670  0.72670  Biso   1.000  C
  H123     1.0000 0.54690  0.32860  0.70680  Biso   1.000  H
  H124     1.0000 0.60610  0.24630  0.70620  Biso   1.000  H
  O47      1.0000 0.54900  0.44930  0.87360  Biso   1.000  O
  O48      1.0000 0.60910  0.38620  0.78581  Biso   1.000  O
  O49      1.0000 0.41710  0.51890  0.78830  Biso   1.000  O
  O50      1.0000 0.36320  0.45530  0.78160  Biso   1.000  O
  O51      1.0000 0.39770  0.57340  0.76180  Biso   1.000  O
  C63      1.0000 0.39180  0.36340  0.98780  Biso   1.000  C
  H125     1.0000 0.34810  0.33310  0.96680  Biso   1.000  H
  H126     1.0000 0.35120  0.40000  0.00660  Biso   1.000  H
  C64      1.0000 0.44570  0.30740  0.01920  Biso   1.000  C
  H127     1.0000 0.49140  0.33750  0.03930  Biso   1.000  H
  H128     1.0000 0.39880  0.27920  0.03960  Biso   1.000  H
  O52      1.0000 0.46060  0.40760  0.96092  Biso   1.000  O
  Ag8      1.0000 0.44690  0.35865  0.81743  Biso   1.000  Ag
  O53      1.0000 0.50000  0.75000  0.74429  Biso   1.000  O
  O54      1.0000 0.50000  0.75000  0.50920  Biso   1.000  O
  O55      1.0000 0.50000  0.25000  0.75571  Biso   1.000  O
  O56      1.0000 0.50000  0.25000  0.99080  Biso   1.000  O
  N3       1.0000 0.60520  0.00000  0.75000  Biso   1.000  N
  N4       1.0000 0.39480  0.50000  0.75000  Biso   1.000  N
  C65      1.0000 0.08360  0.96380  0.92770  Biso   1.000  C
  H129     1.0000 0.12480  0.00240  0.94470  Biso   1.000  H
  H130     1.0000 0.12560  0.93460  0.90550  Biso   1.000  H
  C66      1.0000 0.00420  0.00700  0.90170  Biso   1.000  C
  H131     1.0000 0.03310  0.04830  0.88140  Biso   1.000  H
  H132     1.0000 0.95930  0.03310  0.92400  Biso   1.000  H
  C67      1.0000 0.87550  0.98740  0.84620  Biso   1.000  C
  H133     1.0000 0.82880  0.01520  0.86680  Biso   1.000  H
  H134     1.0000 0.90480  0.02690  0.82480  Biso   1.000  H
  C68      1.0000 0.82300  0.92320  0.81840  Biso   1.000  C
  H135     1.0000 0.76770  0.94700  0.80100  Biso   1.000  H
  H136     1.0000 0.79650  0.88260  0.83990  Biso   1.000  H
  C69      1.0000 0.84710  0.82270  0.75880  Biso   1.000  C
  H137     1.0000 0.82110  0.78140  0.78000  Biso   1.000  H
  H138     1.0000 0.79220  0.84390  0.74010  Biso   1.000  H
  C70      1.0000 0.92410  0.78670  0.72670  Biso   1.000  C
  H139     1.0000 0.95310  0.82860  0.70680  Biso   1.000  H
  H140     1.0000 0.89390  0.74630  0.70620  Biso   1.000  H
  O57      1.0000 0.95100  0.94930  0.87360  Biso   1.000  O
  O58      1.0000 0.89090  0.88620  0.78581  Biso   1.000  O
  O59      1.0000 0.08290  0.01890  0.78830  Biso   1.000  O
  O60      1.0000 0.13680  0.95530  0.78160  Biso   1.000  O
  O61      1.0000 0.10230  0.07340  0.76180  Biso   1.000  O
  C71      1.0000 0.10820  0.86340  0.98780  Biso   1.000  C
  H141     1.0000 0.15190  0.83310  0.96680  Biso   1.000  H
  H142     1.0000 0.14880  0.90000  0.00660  Biso   1.000  H
  C72      1.0000 0.05430  0.80740  0.01920  Biso   1.000  C
  H143     1.0000 0.00860  0.83750  0.03930  Biso   1.000  H
  H144     1.0000 0.10120  0.77920  0.03960  Biso   1.000  H
  O62      1.0000 0.03940  0.90760  0.96092  Biso   1.000  O
  Ag9      1.0000 0.05310  0.85865  0.81743  Biso   1.000  Ag
  C73      1.0000 0.91640  0.53620  0.92770  Biso   1.000  C
  H145     1.0000 0.87520  0.49760  0.94470  Biso   1.000  H
  H146     1.0000 0.87440  0.56540  0.90550  Biso   1.000  H
  C74      1.0000 0.99580  0.49300  0.90170  Biso   1.000  C
  H147     1.0000 0.96690  0.45170  0.88140  Biso   1.000  H
  H148     1.0000 0.04070  0.46690  0.92400  Biso   1.000  H
  C75      1.0000 0.12450  0.51260  0.84620  Biso   1.000  C
  H149     1.0000 0.17120  0.48480  0.86680  Biso   1.000  H
  H150     1.0000 0.09520  0.47310  0.82480  Biso   1.000  H
  C76      1.0000 0.17700  0.57680  0.81840  Biso   1.000  C
  H151     1.0000 0.23230  0.55300  0.80100  Biso   1.000  H
  H152     1.0000 0.20350  0.61740  0.83990  Biso   1.000  H
  C77      1.0000 0.15290  0.67730  0.75880  Biso   1.000  C
  H153     1.0000 0.17890  0.71860  0.78000  Biso   1.000  H
  H154     1.0000 0.20780  0.65610  0.74010  Biso   1.000  H
  C78      1.0000 0.07590  0.71330  0.72670  Biso   1.000  C
  H155     1.0000 0.04690  0.67140  0.70680  Biso   1.000  H
  H156     1.0000 0.10610  0.75370  0.70620  Biso   1.000  H
  O63      1.0000 0.04900  0.55070  0.87360  Biso   1.000  O
  O64      1.0000 0.10910  0.61380  0.78581  Biso   1.000  O
  O65      1.0000 0.91710  0.48110  0.78830  Biso   1.000  O
  O66      1.0000 0.86320  0.54470  0.78160  Biso   1.000  O
  O67      1.0000 0.89770  0.42660  0.76180  Biso   1.000  O
  C79      1.0000 0.89180  0.63660  0.98780  Biso   1.000  C
  H157     1.0000 0.84810  0.66690  0.96680  Biso   1.000  H
  H158     1.0000 0.85120  0.60000  0.00660  Biso   1.000  H
  C80      1.0000 0.94570  0.69260  0.01920  Biso   1.000  C
  H159     1.0000 0.99140  0.66250  0.03930  Biso   1.000  H
  H160     1.0000 0.89880  0.72080  0.03960  Biso   1.000  H
  O68      1.0000 0.96060  0.59240  0.96092  Biso   1.000  O
  Ag10     1.0000 0.94690  0.64135  0.81743  Biso   1.000  Ag
  C81      1.0000 0.91640  0.46380  0.57230  Biso   1.000  C
  H161     1.0000 0.87520  0.50240  0.55530  Biso   1.000  H
  H162     1.0000 0.87440  0.43460  0.59450  Biso   1.000  H
  C82      1.0000 0.99580  0.50700  0.59830  Biso   1.000  C
  H163     1.0000 0.96690  0.54830  0.61860  Biso   1.000  H
  H164     1.0000 0.04070  0.53310  0.57600  Biso   1.000  H
  C83      1.0000 0.12450  0.48740  0.65380  Biso   1.000  C
  H165     1.0000 0.17120  0.51520  0.63320  Biso   1.000  H
  H166     1.0000 0.09520  0.52690  0.67520  Biso   1.000  H
  C84      1.0000 0.17700  0.42320  0.68160  Biso   1.000  C
  H167     1.0000 0.23230  0.44700  0.69900  Biso   1.000  H
  H168     1.0000 0.20350  0.38260  0.66010  Biso   1.000  H
  C85      1.0000 0.15290  0.32270  0.74120  Biso   1.000  C
  H169     1.0000 0.17890  0.28140  0.72000  Biso   1.000  H
  H170     1.0000 0.20780  0.34390  0.75990  Biso   1.000  H
  C86      1.0000 0.07590  0.28670  0.77330  Biso   1.000  C
  H171     1.0000 0.04690  0.32860  0.79320  Biso   1.000  H
  H172     1.0000 0.10610  0.24630  0.79380  Biso   1.000  H
  O69      1.0000 0.04900  0.44930  0.62640  Biso   1.000  O
  O70      1.0000 0.10910  0.38620  0.71419  Biso   1.000  O
  O71      1.0000 0.91710  0.51890  0.71170  Biso   1.000  O
  O72      1.0000 0.86320  0.45530  0.71840  Biso   1.000  O
  O73      1.0000 0.89770  0.57340  0.73820  Biso   1.000  O
  C87      1.0000 0.89180  0.36340  0.51220  Biso   1.000  C
  H173     1.0000 0.84810  0.33310  0.53320  Biso   1.000  H
  H174     1.0000 0.85120  0.40000  0.49340  Biso   1.000  H
  C88      1.0000 0.94570  0.30740  0.48080  Biso   1.000  C
  H175     1.0000 0.99140  0.33750  0.46070  Biso   1.000  H
  H176     1.0000 0.89880  0.27920  0.46040  Biso   1.000  H
  O74      1.0000 0.96060  0.40760  0.53908  Biso   1.000  O
  Ag11     1.0000 0.94690  0.35865  0.68257  Biso   1.000  Ag
  C89      1.0000 0.08360  0.03620  0.57230  Biso   1.000  C
  H177     1.0000 0.12480  0.99760  0.55530  Biso   1.000  H
  H178     1.0000 0.12560  0.06540  0.59450  Biso   1.000  H
  C90      1.0000 0.00420  0.99300  0.59830  Biso   1.000  C
  H179     1.0000 0.03310  0.95170  0.61860  Biso   1.000  H
  H180     1.0000 0.95930  0.96690  0.57600  Biso   1.000  H
  C91      1.0000 0.87550  0.01260  0.65380  Biso   1.000  C
  H181     1.0000 0.82880  0.98480  0.63320  Biso   1.000  H
  H182     1.0000 0.90480  0.97310  0.67520  Biso   1.000  H
  C92      1.0000 0.82300  0.07680  0.68160  Biso   1.000  C
  H183     1.0000 0.76770  0.05300  0.69900  Biso   1.000  H
  H184     1.0000 0.79650  0.11740  0.66010  Biso   1.000  H
  C93      1.0000 0.84710  0.17730  0.74120  Biso   1.000  C
  H185     1.0000 0.82110  0.21860  0.72000  Biso   1.000  H
  H186     1.0000 0.79220  0.15610  0.75990  Biso   1.000  H
  C94      1.0000 0.92410  0.21330  0.77330  Biso   1.000  C
  H187     1.0000 0.95310  0.17140  0.79320  Biso   1.000  H
  H188     1.0000 0.89390  0.25370  0.79380  Biso   1.000  H
  O75      1.0000 0.95100  0.05070  0.62640  Biso   1.000  O
  O76      1.0000 0.89090  0.11380  0.71419  Biso   1.000  O
  O77      1.0000 0.08290  0.98110  0.71170  Biso   1.000  O
  O78      1.0000 0.13680  0.04470  0.71840  Biso   1.000  O
  O79      1.0000 0.10230  0.92660  0.73820  Biso   1.000  O
  C95      1.0000 0.10820  0.13660  0.51220  Biso   1.000  C
  H189     1.0000 0.15190  0.16690  0.53320  Biso   1.000  H
  H190     1.0000 0.14880  0.10000  0.49340  Biso   1.000  H
  C96      1.0000 0.05430  0.19260  0.48080  Biso   1.000  C
  H191     1.0000 0.00860  0.16250  0.46070  Biso   1.000  H
  H192     1.0000 0.10120  0.22080  0.46040  Biso   1.000  H
  O80      1.0000 0.03940  0.09240  0.53908  Biso   1.000  O
  Ag12     1.0000 0.05310  0.14135  0.68257  Biso   1.000  Ag
  O81      1.0000 0.00000  0.75000  0.75571  Biso   1.000  O
  O82      1.0000 0.00000  0.75000  0.99080  Biso   1.000  O
  O83      1.0000 0.00000  0.25000  0.74429  Biso   1.000  O
  O84      1.0000 0.00000  0.25000  0.50920  Biso   1.000  O
  N5       1.0000 0.10520  0.00000  0.75000  Biso   1.000  N
  N6       1.0000 0.89480  0.50000  0.75000  Biso   1.000  N
  C97      1.0000 0.58360  0.46380  0.42770  Biso   1.000  C
  H193     1.0000 0.62480  0.50240  0.44470  Biso   1.000  H
  H194     1.0000 0.62560  0.43460  0.40550  Biso   1.000  H
  C98      1.0000 0.50420  0.50700  0.40170  Biso   1.000  C
  H195     1.0000 0.53310  0.54830  0.38140  Biso   1.000  H
  H196     1.0000 0.45930  0.53310  0.42400  Biso   1.000  H
  C99      1.0000 0.37550  0.48740  0.34620  Biso   1.000  C
  H197     1.0000 0.32880  0.51520  0.36680  Biso   1.000  H
  H198     1.0000 0.40480  0.52690  0.32480  Biso   1.000  H
  C100     1.0000 0.32300  0.42320  0.31840  Biso   1.000  C
  H199     1.0000 0.26770  0.44700  0.30100  Biso   1.000  H
  H200     1.0000 0.29650  0.38260  0.33990  Biso   1.000  H
  C101     1.0000 0.34710  0.32270  0.25880  Biso   1.000  C
  H201     1.0000 0.32110  0.28140  0.28000  Biso   1.000  H
  H202     1.0000 0.29220  0.34390  0.24010  Biso   1.000  H
  C102     1.0000 0.42410  0.28670  0.22670  Biso   1.000  C
  H203     1.0000 0.45310  0.32860  0.20680  Biso   1.000  H
  H204     1.0000 0.39390  0.24630  0.20620  Biso   1.000  H
  O85      1.0000 0.45100  0.44930  0.37360  Biso   1.000  O
  O86      1.0000 0.39090  0.38620  0.28581  Biso   1.000  O
  O87      1.0000 0.58290  0.51890  0.28830  Biso   1.000  O
  O88      1.0000 0.63680  0.45530  0.28160  Biso   1.000  O
  O89      1.0000 0.60230  0.57340  0.26180  Biso   1.000  O
  C103     1.0000 0.60820  0.36340  0.48780  Biso   1.000  C
  H205     1.0000 0.65190  0.33310  0.46680  Biso   1.000  H
  H206     1.0000 0.64880  0.40000  0.50660  Biso   1.000  H
  C104     1.0000 0.55430  0.30740  0.51920  Biso   1.000  C
  H207     1.0000 0.50860  0.33750  0.53930  Biso   1.000  H
  H208     1.0000 0.60120  0.27920  0.53960  Biso   1.000  H
  O90      1.0000 0.53940  0.40760  0.46092  Biso   1.000  O
  Ag13     1.0000 0.55310  0.35865  0.31743  Biso   1.000  Ag
  C105     1.0000 0.41640  0.03620  0.42770  Biso   1.000  C
  H209     1.0000 0.37520  0.99760  0.44470  Biso   1.000  H
  H210     1.0000 0.37440  0.06540  0.40550  Biso   1.000  H
  C106     1.0000 0.49580  0.99300  0.40170  Biso   1.000  C
  H211     1.0000 0.46690  0.95170  0.38140  Biso   1.000  H
  H212     1.0000 0.54070  0.96690  0.42400  Biso   1.000  H
  C107     1.0000 0.62450  0.01260  0.34620  Biso   1.000  C
  H213     1.0000 0.67120  0.98480  0.36680  Biso   1.000  H
  H214     1.0000 0.59520  0.97310  0.32480  Biso   1.000  H
  C108     1.0000 0.67700  0.07680  0.31840  Biso   1.000  C
  H215     1.0000 0.73230  0.05300  0.30100  Biso   1.000  H
  H216     1.0000 0.70350  0.11740  0.33990  Biso   1.000  H
  C109     1.0000 0.65290  0.17730  0.25880  Biso   1.000  C
  H217     1.0000 0.67890  0.21860  0.28000  Biso   1.000  H
  H218     1.0000 0.70780  0.15610  0.24010  Biso   1.000  H
  C110     1.0000 0.57590  0.21330  0.22670  Biso   1.000  C
  H219     1.0000 0.54690  0.17140  0.20680  Biso   1.000  H
  H220     1.0000 0.60610  0.25370  0.20620  Biso   1.000  H
  O91      1.0000 0.54900  0.05070  0.37360  Biso   1.000  O
  O92      1.0000 0.60910  0.11380  0.28581  Biso   1.000  O
  O93      1.0000 0.41710  0.98110  0.28830  Biso   1.000  O
  O94      1.0000 0.36320  0.04470  0.28160  Biso   1.000  O
  O95      1.0000 0.39770  0.92660  0.26180  Biso   1.000  O
  C111     1.0000 0.39180  0.13660  0.48780  Biso   1.000  C
  H221     1.0000 0.34810  0.16690  0.46680  Biso   1.000  H
  H222     1.0000 0.35120  0.10000  0.50660  Biso   1.000  H
  C112     1.0000 0.44570  0.19260  0.51920  Biso   1.000  C
  H223     1.0000 0.49140  0.16250  0.53930  Biso   1.000  H
  H224     1.0000 0.39880  0.22080  0.53960  Biso   1.000  H
  O96      1.0000 0.46060  0.09240  0.46092  Biso   1.000  O
  Ag14     1.0000 0.44690  0.14135  0.31743  Biso   1.000  Ag
  C113     1.0000 0.41640  0.96380  0.07230  Biso   1.000  C
  H225     1.0000 0.37520  0.00240  0.05530  Biso   1.000  H
  H226     1.0000 0.37440  0.93460  0.09450  Biso   1.000  H
  C114     1.0000 0.49580  0.00700  0.09830  Biso   1.000  C
  H227     1.0000 0.46690  0.04830  0.11860  Biso   1.000  H
  H228     1.0000 0.54070  0.03310  0.07600  Biso   1.000  H
  C115     1.0000 0.62450  0.98740  0.15380  Biso   1.000  C
  H229     1.0000 0.67120  0.01520  0.13320  Biso   1.000  H
  H230     1.0000 0.59520  0.02690  0.17520  Biso   1.000  H
  C116     1.0000 0.67700  0.92320  0.18160  Biso   1.000  C
  H231     1.0000 0.73230  0.94700  0.19900  Biso   1.000  H
  H232     1.0000 0.70350  0.88260  0.16010  Biso   1.000  H
  C117     1.0000 0.65290  0.82270  0.24120  Biso   1.000  C
  H233     1.0000 0.67890  0.78140  0.22000  Biso   1.000  H
  H234     1.0000 0.70780  0.84390  0.25990  Biso   1.000  H
  C118     1.0000 0.57590  0.78670  0.27330  Biso   1.000  C
  H235     1.0000 0.54690  0.82860  0.29320  Biso   1.000  H
  H236     1.0000 0.60610  0.74630  0.29380  Biso   1.000  H
  O97      1.0000 0.54900  0.94930  0.12640  Biso   1.000  O
  O98      1.0000 0.60910  0.88620  0.21419  Biso   1.000  O
  O99      1.0000 0.41710  0.01890  0.21170  Biso   1.000  O
  O100     1.0000 0.36320  0.95530  0.21840  Biso   1.000  O
  O101     1.0000 0.39770  0.07340  0.23820  Biso   1.000  O
  C119     1.0000 0.39180  0.86340  0.01220  Biso   1.000  C
  H237     1.0000 0.34810  0.83310  0.03320  Biso   1.000  H
  H238     1.0000 0.35120  0.90000  0.99340  Biso   1.000  H
  C120     1.0000 0.44570  0.80740  0.98080  Biso   1.000  C
  H239     1.0000 0.49140  0.83750  0.96070  Biso   1.000  H
  H240     1.0000 0.39880  0.77920  0.96040  Biso   1.000  H
  O102     1.0000 0.46060  0.90760  0.03908  Biso   1.000  O
  Ag15     1.0000 0.44690  0.85865  0.18257  Biso   1.000  Ag
  C121     1.0000 0.58360  0.53620  0.07230  Biso   1.000  C
  H241     1.0000 0.62480  0.49760  0.05530  Biso   1.000  H
  H242     1.0000 0.62560  0.56540  0.09450  Biso   1.000  H
  C122     1.0000 0.50420  0.49300  0.09830  Biso   1.000  C
  H243     1.0000 0.53310  0.45170  0.11860  Biso   1.000  H
  H244     1.0000 0.45930  0.46690  0.07600  Biso   1.000  H
  C123     1.0000 0.37550  0.51260  0.15380  Biso   1.000  C
  H245     1.0000 0.32880  0.48480  0.13320  Biso   1.000  H
  H246     1.0000 0.40480  0.47310  0.17520  Biso   1.000  H
  C124     1.0000 0.32300  0.57680  0.18160  Biso   1.000  C
  H247     1.0000 0.26770  0.55300  0.19900  Biso   1.000  H
  H248     1.0000 0.29650  0.61740  0.16010  Biso   1.000  H
  C125     1.0000 0.34710  0.67730  0.24120  Biso   1.000  C
  H249     1.0000 0.32110  0.71860  0.22000  Biso   1.000  H
  H250     1.0000 0.29220  0.65610  0.25990  Biso   1.000  H
  C126     1.0000 0.42410  0.71330  0.27330  Biso   1.000  C
  H251     1.0000 0.45310  0.67140  0.29320  Biso   1.000  H
  H252     1.0000 0.39390  0.75370  0.29380  Biso   1.000  H
  O103     1.0000 0.45100  0.55070  0.12640  Biso   1.000  O
  O104     1.0000 0.39090  0.61380  0.21419  Biso   1.000  O
  O105     1.0000 0.58290  0.48110  0.21170  Biso   1.000  O
  O106     1.0000 0.63680  0.54470  0.21840  Biso   1.000  O
  O107     1.0000 0.60230  0.42660  0.23820  Biso   1.000  O
  C127     1.0000 0.60820  0.63660  0.01220  Biso   1.000  C
  H253     1.0000 0.65190  0.66690  0.03320  Biso   1.000  H
  H254     1.0000 0.64880  0.60000  0.99340  Biso   1.000  H
  C128     1.0000 0.55430  0.69260  0.98080  Biso   1.000  C
  H255     1.0000 0.50860  0.66250  0.96070  Biso   1.000  H
  H256     1.0000 0.60120  0.72080  0.96040  Biso   1.000  H
  O108     1.0000 0.53940  0.59240  0.03908  Biso   1.000  O
  Ag16     1.0000 0.55310  0.64135  0.18257  Biso   1.000  Ag
  O109     1.0000 0.50000  0.25000  0.25571  Biso   1.000  O
  O110     1.0000 0.50000  0.25000  0.49080  Biso   1.000  O
  O111     1.0000 0.50000  0.75000  0.24429  Biso   1.000  O
  O112     1.0000 0.50000  0.75000  0.00920  Biso   1.000  O
  N7       1.0000 0.60520  0.50000  0.25000  Biso   1.000  N
  N8       1.0000 0.39480  0.00000  0.25000  Biso   1.000  N
