data_image0
_cell_length_a       14.429
_cell_length_b       17.916
_cell_length_c       17.441
_cell_angle_alpha    90
_cell_angle_beta     90
_cell_angle_gamma    90

_symmetry_space_group_name_H-M    "P 1"
_symmetry_int_tables_number       1

loop_
  _symmetry_equiv_pos_as_xyz
  'x, y, z'

loop_
  _atom_site_label
  _atom_site_occupancy
  _atom_site_fract_x
  _atom_site_fract_y
  _atom_site_fract_z
  _atom_site_thermal_displace_type
  _atom_site_B_iso_or_equiv
  _atom_site_type_symbol
  Cd1      1.0000 0.50869  0.17135  0.18253  Biso   1.000  Cd
  O1       1.0000 0.00200  0.56550  0.86590  Biso   1.000  O
  O2       1.0000 0.10940  0.56980  0.77480  Biso   1.000  O
  N1       1.0000 0.41470  0.25180  0.11100  Biso   1.000  N
  N2       1.0000 0.59940  0.27160  0.12980  Biso   1.000  N
  N3       1.0000 0.34790  0.14080  0.19510  Biso   1.000  N
  C1       1.0000 0.45530  0.30880  0.07070  Biso   1.000  C
  C2       1.0000 0.40470  0.35630  0.02720  Biso   1.000  C
  H1       1.0000 0.43400  0.39480  0.00090  Biso   1.000  H
  C3       1.0000 0.31050  0.34820  0.02160  Biso   1.000  C
  C4       1.0000 0.26900  0.28910  0.06270  Biso   1.000  C
  H2       1.0000 0.20540  0.28110  0.06050  Biso   1.000  H
  C5       1.0000 0.32540  0.24360  0.10600  Biso   1.000  C
  C6       1.0000 0.55740  0.31900  0.08290  Biso   1.000  C
  C7       1.0000 0.60650  0.37560  0.04720  Biso   1.000  C
  H3       1.0000 0.57720  0.40710  0.01240  Biso   1.000  H
  C8       1.0000 0.70070  0.38490  0.06410  Biso   1.000  C
  H4       1.0000 0.73460  0.42300  0.04120  Biso   1.000  H
  C9       1.0000 0.74240  0.33670  0.11530  Biso   1.000  C
  H5       1.0000 0.80430  0.34230  0.12880  Biso   1.000  H
  C10      1.0000 0.69100  0.28160  0.14490  Biso   1.000  C
  H6       1.0000 0.71980  0.24800  0.17780  Biso   1.000  H
  C11      1.0000 0.28530  0.18170  0.15490  Biso   1.000  C
  C12      1.0000 0.19040  0.16770  0.15980  Biso   1.000  C
  H7       1.0000 0.14860  0.19530  0.13080  Biso   1.000  H
  C13      1.0000 0.16000  0.11270  0.20790  Biso   1.000  C
  H8       1.0000 0.09690  0.10400  0.21390  Biso   1.000  H
  C14      1.0000 0.22360  0.07020  0.24750  Biso   1.000  C
  H9       1.0000 0.20460  0.03130  0.27920  Biso   1.000  H
  C15      1.0000 0.31600  0.08710  0.23880  Biso   1.000  C
  H10      1.0000 0.35880  0.05840  0.26570  Biso   1.000  H
  C16      1.0000 0.25060  0.40130  0.97650  Biso   1.000  C
  C17      1.0000 0.28800  0.44500  0.91680  Biso   1.000  C
  H11      1.0000 0.35100  0.44170  0.90610  Biso   1.000  H
  C18      1.0000 0.23410  0.49200  0.87430  Biso   1.000  C
  H12      1.0000 0.26080  0.52140  0.83630  Biso   1.000  H
  C19      1.0000 0.13990  0.49570  0.88790  Biso   1.000  C
  C20      1.0000 0.10150  0.45460  0.94480  Biso   1.000  C
  H13      1.0000 0.03830  0.45840  0.95410  Biso   1.000  H
  C21      1.0000 0.15610  0.40560  0.99050  Biso   1.000  C
  H14      1.0000 0.12890  0.37710  0.02900  Biso   1.000  H
  C22      1.0000 0.07890  0.54650  0.84060  Biso   1.000  C
  Cd2      1.0000 0.99677  0.66250  0.76687  Biso   1.000  Cd
  O3       1.0000 0.66420  0.10550  0.16170  Biso   1.000  O
  O4       1.0000 0.53730  0.08110  0.09410  Biso   1.000  O
  N4       1.0000 0.91600  0.74160  0.84670  Biso   1.000  N
  N5       1.0000 0.83690  0.64470  0.75060  Biso   1.000  N
  N6       1.0000 0.09710  0.72480  0.84830  Biso   1.000  N
  C23      1.0000 0.82110  0.74340  0.84200  Biso   1.000  C
  C24      1.0000 0.77270  0.79740  0.88430  Biso   1.000  C
  H15      1.0000 0.70830  0.79850  0.88250  Biso   1.000  H
  C25      1.0000 0.81840  0.84770  0.92780  Biso   1.000  C
  C26      1.0000 0.91500  0.84520  0.93200  Biso   1.000  C
  H16      1.0000 0.94810  0.87920  0.96140  Biso   1.000  H
  C27      1.0000 0.95950  0.78940  0.89010  Biso   1.000  C
  C28      1.0000 0.77880  0.68720  0.79150  Biso   1.000  C
  C29      1.0000 0.68440  0.67640  0.78670  Biso   1.000  C
  H17      1.0000 0.64480  0.70630  0.81550  Biso   1.000  H
  C30      1.0000 0.64870  0.62270  0.74030  Biso   1.000  C
  H18      1.0000 0.58490  0.61560  0.73750  Biso   1.000  H
  C31      1.0000 0.70830  0.57830  0.69700  Biso   1.000  C
  H19      1.0000 0.68550  0.54150  0.66450  Biso   1.000  H
  C32      1.0000 0.80170  0.59070  0.70400  Biso   1.000  C
  H20      1.0000 0.84250  0.56120  0.67600  Biso   1.000  H
  C33      1.0000 0.06280  0.77620  0.89390  Biso   1.000  C
  C34      1.0000 0.11730  0.81850  0.94330  Biso   1.000  C
  H21      1.0000 0.09120  0.85550  0.97380  Biso   1.000  H
  C35      1.0000 0.21150  0.80400  0.94560  Biso   1.000  C
  H22      1.0000 0.24960  0.83100  0.97860  Biso   1.000  H
  C36      1.0000 0.24840  0.75040  0.90000  Biso   1.000  C
  H23      1.0000 0.31150  0.74020  0.90140  Biso   1.000  H
  C37      1.0000 0.19030  0.71090  0.85110  Biso   1.000  C
  H24      1.0000 0.21530  0.67420  0.81960  Biso   1.000  H
  C38      1.0000 0.76750  0.90790  0.97320  Biso   1.000  C
  C39      1.0000 0.67730  0.92680  0.95700  Biso   1.000  C
  H25      1.0000 0.64670  0.90320  0.91680  Biso   1.000  H
  C40      1.0000 0.63190  0.97960  0.99900  Biso   1.000  C
  H26      1.0000 0.57070  0.99130  0.98720  Biso   1.000  H
  C41      1.0000 0.67570  0.01620  0.05900  Biso   1.000  C
  C42      1.0000 0.76710  0.00050  0.07330  Biso   1.000  C
  H27      1.0000 0.79830  0.02590  0.11200  Biso   1.000  H
  C43      1.0000 0.81290  0.94730  0.03050  Biso   1.000  C
  H28      1.0000 0.87520  0.93770  0.04020  Biso   1.000  H
  C44      1.0000 0.62210  0.07220  0.10790  Biso   1.000  C
  Cd3      1.0000 0.49677  0.33750  0.76687  Biso   1.000  Cd
  O5       1.0000 0.16420  0.89450  0.16170  Biso   1.000  O
  O6       1.0000 0.03730  0.91890  0.09410  Biso   1.000  O
  N7       1.0000 0.41600  0.25840  0.84670  Biso   1.000  N
  N8       1.0000 0.33690  0.35530  0.75060  Biso   1.000  N
  N9       1.0000 0.59710  0.27520  0.84830  Biso   1.000  N
  C45      1.0000 0.32110  0.25660  0.84200  Biso   1.000  C
  C46      1.0000 0.27270  0.20260  0.88430  Biso   1.000  C
  H29      1.0000 0.20830  0.20150  0.88250  Biso   1.000  H
  C47      1.0000 0.31840  0.15230  0.92780  Biso   1.000  C
  C48      1.0000 0.41500  0.15480  0.93200  Biso   1.000  C
  H30      1.0000 0.44810  0.12080  0.96140  Biso   1.000  H
  C49      1.0000 0.45950  0.21060  0.89010  Biso   1.000  C
  C50      1.0000 0.27880  0.31280  0.79150  Biso   1.000  C
  C51      1.0000 0.18440  0.32360  0.78670  Biso   1.000  C
  H31      1.0000 0.14480  0.29370  0.81550  Biso   1.000  H
  C52      1.0000 0.14870  0.37730  0.74030  Biso   1.000  C
  H32      1.0000 0.08490  0.38440  0.73750  Biso   1.000  H
  C53      1.0000 0.20830  0.42170  0.69700  Biso   1.000  C
  H33      1.0000 0.18550  0.45850  0.66450  Biso   1.000  H
  C54      1.0000 0.30170  0.40930  0.70400  Biso   1.000  C
  H34      1.0000 0.34250  0.43880  0.67600  Biso   1.000  H
  C55      1.0000 0.56280  0.22380  0.89390  Biso   1.000  C
  C56      1.0000 0.61730  0.18150  0.94330  Biso   1.000  C
  H35      1.0000 0.59120  0.14450  0.97380  Biso   1.000  H
  C57      1.0000 0.71150  0.19600  0.94560  Biso   1.000  C
  H36      1.0000 0.74960  0.16900  0.97860  Biso   1.000  H
  C58      1.0000 0.74840  0.24960  0.90000  Biso   1.000  C
  H37      1.0000 0.81150  0.25980  0.90140  Biso   1.000  H
  C59      1.0000 0.69030  0.28910  0.85110  Biso   1.000  C
  H38      1.0000 0.71530  0.32580  0.81960  Biso   1.000  H
  C60      1.0000 0.26750  0.09210  0.97320  Biso   1.000  C
  C61      1.0000 0.17730  0.07320  0.95700  Biso   1.000  C
  H39      1.0000 0.14670  0.09680  0.91680  Biso   1.000  H
  C62      1.0000 0.13190  0.02040  0.99900  Biso   1.000  C
  H40      1.0000 0.07070  0.00870  0.98720  Biso   1.000  H
  C63      1.0000 0.17570  0.98380  0.05900  Biso   1.000  C
  C64      1.0000 0.26710  0.99950  0.07330  Biso   1.000  C
  H41      1.0000 0.29830  0.97410  0.11200  Biso   1.000  H
  C65      1.0000 0.31290  0.05270  0.03050  Biso   1.000  C
  H42      1.0000 0.37520  0.06230  0.04020  Biso   1.000  H
  C66      1.0000 0.12210  0.92780  0.10790  Biso   1.000  C
  Cd4      1.0000 0.00869  0.82865  0.18253  Biso   1.000  Cd
  O7       1.0000 0.50200  0.43450  0.86590  Biso   1.000  O
  O8       1.0000 0.60940  0.43020  0.77480  Biso   1.000  O
  N10      1.0000 0.91470  0.74820  0.11100  Biso   1.000  N
  N11      1.0000 0.09940  0.72840  0.12980  Biso   1.000  N
  N12      1.0000 0.84790  0.85920  0.19510  Biso   1.000  N
  C67      1.0000 0.95530  0.69120  0.07070  Biso   1.000  C
  C68      1.0000 0.90470  0.64370  0.02720  Biso   1.000  C
  H43      1.0000 0.93400  0.60520  0.00090  Biso   1.000  H
  C69      1.0000 0.81050  0.65180  0.02160  Biso   1.000  C
  C70      1.0000 0.76900  0.71090  0.06270  Biso   1.000  C
  H44      1.0000 0.70540  0.71890  0.06050  Biso   1.000  H
  C71      1.0000 0.82540  0.75640  0.10600  Biso   1.000  C
  C72      1.0000 0.05740  0.68100  0.08290  Biso   1.000  C
  C73      1.0000 0.10650  0.62440  0.04720  Biso   1.000  C
  H45      1.0000 0.07720  0.59290  0.01240  Biso   1.000  H
  C74      1.0000 0.20070  0.61510  0.06410  Biso   1.000  C
  H46      1.0000 0.23460  0.57700  0.04120  Biso   1.000  H
  C75      1.0000 0.24240  0.66330  0.11530  Biso   1.000  C
  H47      1.0000 0.30430  0.65770  0.12880  Biso   1.000  H
  C76      1.0000 0.19100  0.71840  0.14490  Biso   1.000  C
  H48      1.0000 0.21980  0.75200  0.17780  Biso   1.000  H
  C77      1.0000 0.78530  0.81830  0.15490  Biso   1.000  C
  C78      1.0000 0.69040  0.83230  0.15980  Biso   1.000  C
  H49      1.0000 0.64860  0.80470  0.13080  Biso   1.000  H
  C79      1.0000 0.66000  0.88730  0.20790  Biso   1.000  C
  H50      1.0000 0.59690  0.89600  0.21390  Biso   1.000  H
  C80      1.0000 0.72360  0.92980  0.24750  Biso   1.000  C
  H51      1.0000 0.70460  0.96870  0.27920  Biso   1.000  H
  C81      1.0000 0.81600  0.91290  0.23880  Biso   1.000  C
  H52      1.0000 0.85880  0.94160  0.26570  Biso   1.000  H
  C82      1.0000 0.75060  0.59870  0.97650  Biso   1.000  C
  C83      1.0000 0.78800  0.55500  0.91680  Biso   1.000  C
  H53      1.0000 0.85100  0.55830  0.90610  Biso   1.000  H
  C84      1.0000 0.73410  0.50800  0.87430  Biso   1.000  C
  H54      1.0000 0.76080  0.47860  0.83630  Biso   1.000  H
  C85      1.0000 0.63990  0.50430  0.88790  Biso   1.000  C
  C86      1.0000 0.60150  0.54540  0.94480  Biso   1.000  C
  H55      1.0000 0.53830  0.54160  0.95410  Biso   1.000  H
  C87      1.0000 0.65610  0.59440  0.99050  Biso   1.000  C
  H56      1.0000 0.62890  0.62290  0.02900  Biso   1.000  H
  C88      1.0000 0.57890  0.45350  0.84060  Biso   1.000  C
  Cd5      1.0000 0.49131  0.82865  0.68253  Biso   1.000  Cd
  O9       1.0000 0.99800  0.43450  0.36590  Biso   1.000  O
  O10      1.0000 0.89060  0.43020  0.27480  Biso   1.000  O
  N13      1.0000 0.58530  0.74820  0.61100  Biso   1.000  N
  N14      1.0000 0.40060  0.72840  0.62980  Biso   1.000  N
  N15      1.0000 0.65210  0.85920  0.69510  Biso   1.000  N
  C89      1.0000 0.54470  0.69120  0.57070  Biso   1.000  C
  C90      1.0000 0.59530  0.64370  0.52720  Biso   1.000  C
  H57      1.0000 0.56600  0.60520  0.50090  Biso   1.000  H
  C91      1.0000 0.68950  0.65180  0.52160  Biso   1.000  C
  C92      1.0000 0.73100  0.71090  0.56270  Biso   1.000  C
  H58      1.0000 0.79460  0.71890  0.56050  Biso   1.000  H
  C93      1.0000 0.67460  0.75640  0.60600  Biso   1.000  C
  C94      1.0000 0.44260  0.68100  0.58290  Biso   1.000  C
  C95      1.0000 0.39350  0.62440  0.54720  Biso   1.000  C
  H59      1.0000 0.42280  0.59290  0.51240  Biso   1.000  H
  C96      1.0000 0.29930  0.61510  0.56410  Biso   1.000  C
  H60      1.0000 0.26540  0.57700  0.54120  Biso   1.000  H
  C97      1.0000 0.25760  0.66330  0.61530  Biso   1.000  C
  H61      1.0000 0.19570  0.65770  0.62880  Biso   1.000  H
  C98      1.0000 0.30900  0.71840  0.64490  Biso   1.000  C
  H62      1.0000 0.28020  0.75200  0.67780  Biso   1.000  H
  C99      1.0000 0.71470  0.81830  0.65490  Biso   1.000  C
  C100     1.0000 0.80960  0.83230  0.65980  Biso   1.000  C
  H63      1.0000 0.85140  0.80470  0.63080  Biso   1.000  H
  C101     1.0000 0.84000  0.88730  0.70790  Biso   1.000  C
  H64      1.0000 0.90310  0.89600  0.71390  Biso   1.000  H
  C102     1.0000 0.77640  0.92980  0.74750  Biso   1.000  C
  H65      1.0000 0.79540  0.96870  0.77920  Biso   1.000  H
  C103     1.0000 0.68400  0.91290  0.73880  Biso   1.000  C
  H66      1.0000 0.64120  0.94160  0.76570  Biso   1.000  H
  C104     1.0000 0.74940  0.59870  0.47650  Biso   1.000  C
  C105     1.0000 0.71200  0.55500  0.41680  Biso   1.000  C
  H67      1.0000 0.64900  0.55830  0.40610  Biso   1.000  H
  C106     1.0000 0.76590  0.50800  0.37430  Biso   1.000  C
  H68      1.0000 0.73920  0.47860  0.33630  Biso   1.000  H
  C107     1.0000 0.86010  0.50430  0.38790  Biso   1.000  C
  C108     1.0000 0.89850  0.54540  0.44480  Biso   1.000  C
  H69      1.0000 0.96170  0.54160  0.45410  Biso   1.000  H
  C109     1.0000 0.84390  0.59440  0.49050  Biso   1.000  C
  H70      1.0000 0.87110  0.62290  0.52900  Biso   1.000  H
  C110     1.0000 0.92110  0.45350  0.34060  Biso   1.000  C
  Cd6      1.0000 0.00323  0.33750  0.26687  Biso   1.000  Cd
  O11      1.0000 0.33580  0.89450  0.66170  Biso   1.000  O
  O12      1.0000 0.46270  0.91890  0.59410  Biso   1.000  O
  N16      1.0000 0.08400  0.25840  0.34670  Biso   1.000  N
  N17      1.0000 0.16310  0.35530  0.25060  Biso   1.000  N
  N18      1.0000 0.90290  0.27520  0.34830  Biso   1.000  N
  C111     1.0000 0.17890  0.25660  0.34200  Biso   1.000  C
  C112     1.0000 0.22730  0.20260  0.38430  Biso   1.000  C
  H71      1.0000 0.29170  0.20150  0.38250  Biso   1.000  H
  C113     1.0000 0.18160  0.15230  0.42780  Biso   1.000  C
  C114     1.0000 0.08500  0.15480  0.43200  Biso   1.000  C
  H72      1.0000 0.05190  0.12080  0.46140  Biso   1.000  H
  C115     1.0000 0.04050  0.21060  0.39010  Biso   1.000  C
  C116     1.0000 0.22120  0.31280  0.29150  Biso   1.000  C
  C117     1.0000 0.31560  0.32360  0.28670  Biso   1.000  C
  H73      1.0000 0.35520  0.29370  0.31550  Biso   1.000  H
  C118     1.0000 0.35130  0.37730  0.24030  Biso   1.000  C
  H74      1.0000 0.41510  0.38440  0.23750  Biso   1.000  H
  C119     1.0000 0.29170  0.42170  0.19700  Biso   1.000  C
  H75      1.0000 0.31450  0.45850  0.16450  Biso   1.000  H
  C120     1.0000 0.19830  0.40930  0.20400  Biso   1.000  C
  H76      1.0000 0.15750  0.43880  0.17600  Biso   1.000  H
  C121     1.0000 0.93720  0.22380  0.39390  Biso   1.000  C
  C122     1.0000 0.88270  0.18150  0.44330  Biso   1.000  C
  H77      1.0000 0.90880  0.14450  0.47380  Biso   1.000  H
  C123     1.0000 0.78850  0.19600  0.44560  Biso   1.000  C
  H78      1.0000 0.75040  0.16900  0.47860  Biso   1.000  H
  C124     1.0000 0.75160  0.24960  0.40000  Biso   1.000  C
  H79      1.0000 0.68850  0.25980  0.40140  Biso   1.000  H
  C125     1.0000 0.80970  0.28910  0.35110  Biso   1.000  C
  H80      1.0000 0.78470  0.32580  0.31960  Biso   1.000  H
  C126     1.0000 0.23250  0.09210  0.47320  Biso   1.000  C
  C127     1.0000 0.32270  0.07320  0.45700  Biso   1.000  C
  H81      1.0000 0.35330  0.09680  0.41680  Biso   1.000  H
  C128     1.0000 0.36810  0.02040  0.49900  Biso   1.000  C
  H82      1.0000 0.42930  0.00870  0.48720  Biso   1.000  H
  C129     1.0000 0.32430  0.98380  0.55900  Biso   1.000  C
  C130     1.0000 0.23290  0.99950  0.57330  Biso   1.000  C
  H83      1.0000 0.20170  0.97410  0.61200  Biso   1.000  H
  C131     1.0000 0.18710  0.05270  0.53050  Biso   1.000  C
  H84      1.0000 0.12480  0.06230  0.54020  Biso   1.000  H
  C132     1.0000 0.37790  0.92780  0.60790  Biso   1.000  C
  Cd7      1.0000 0.50323  0.66250  0.26687  Biso   1.000  Cd
  O13      1.0000 0.83580  0.10550  0.66170  Biso   1.000  O
  O14      1.0000 0.96270  0.08110  0.59410  Biso   1.000  O
  N19      1.0000 0.58400  0.74160  0.34670  Biso   1.000  N
  N20      1.0000 0.66310  0.64470  0.25060  Biso   1.000  N
  N21      1.0000 0.40290  0.72480  0.34830  Biso   1.000  N
  C133     1.0000 0.67890  0.74340  0.34200  Biso   1.000  C
  C134     1.0000 0.72730  0.79740  0.38430  Biso   1.000  C
  H85      1.0000 0.79170  0.79850  0.38250  Biso   1.000  H
  C135     1.0000 0.68160  0.84770  0.42780  Biso   1.000  C
  C136     1.0000 0.58500  0.84520  0.43200  Biso   1.000  C
  H86      1.0000 0.55190  0.87920  0.46140  Biso   1.000  H
  C137     1.0000 0.54050  0.78940  0.39010  Biso   1.000  C
  C138     1.0000 0.72120  0.68720  0.29150  Biso   1.000  C
  C139     1.0000 0.81560  0.67640  0.28670  Biso   1.000  C
  H87      1.0000 0.85520  0.70630  0.31550  Biso   1.000  H
  C140     1.0000 0.85130  0.62270  0.24030  Biso   1.000  C
  H88      1.0000 0.91510  0.61560  0.23750  Biso   1.000  H
  C141     1.0000 0.79170  0.57830  0.19700  Biso   1.000  C
  H89      1.0000 0.81450  0.54150  0.16450  Biso   1.000  H
  C142     1.0000 0.69830  0.59070  0.20400  Biso   1.000  C
  H90      1.0000 0.65750  0.56120  0.17600  Biso   1.000  H
  C143     1.0000 0.43720  0.77620  0.39390  Biso   1.000  C
  C144     1.0000 0.38270  0.81850  0.44330  Biso   1.000  C
  H91      1.0000 0.40880  0.85550  0.47380  Biso   1.000  H
  C145     1.0000 0.28850  0.80400  0.44560  Biso   1.000  C
  H92      1.0000 0.25040  0.83100  0.47860  Biso   1.000  H
  C146     1.0000 0.25160  0.75040  0.40000  Biso   1.000  C
  H93      1.0000 0.18850  0.74020  0.40140  Biso   1.000  H
  C147     1.0000 0.30970  0.71090  0.35110  Biso   1.000  C
  H94      1.0000 0.28470  0.67420  0.31960  Biso   1.000  H
  C148     1.0000 0.73250  0.90790  0.47320  Biso   1.000  C
  C149     1.0000 0.82270  0.92680  0.45700  Biso   1.000  C
  H95      1.0000 0.85330  0.90320  0.41680  Biso   1.000  H
  C150     1.0000 0.86810  0.97960  0.49900  Biso   1.000  C
  H96      1.0000 0.92930  0.99130  0.48720  Biso   1.000  H
  C151     1.0000 0.82430  0.01620  0.55900  Biso   1.000  C
  C152     1.0000 0.73290  0.00050  0.57330  Biso   1.000  C
  H97      1.0000 0.70170  0.02590  0.61200  Biso   1.000  H
  C153     1.0000 0.68710  0.94730  0.53050  Biso   1.000  C
  H98      1.0000 0.62480  0.93770  0.54020  Biso   1.000  H
  C154     1.0000 0.87790  0.07220  0.60790  Biso   1.000  C
  Cd8      1.0000 0.99131  0.17135  0.68253  Biso   1.000  Cd
  O15      1.0000 0.49800  0.56550  0.36590  Biso   1.000  O
  O16      1.0000 0.39060  0.56980  0.27480  Biso   1.000  O
  N22      1.0000 0.08530  0.25180  0.61100  Biso   1.000  N
  N23      1.0000 0.90060  0.27160  0.62980  Biso   1.000  N
  N24      1.0000 0.15210  0.14080  0.69510  Biso   1.000  N
  C155     1.0000 0.04470  0.30880  0.57070  Biso   1.000  C
  C156     1.0000 0.09530  0.35630  0.52720  Biso   1.000  C
  H99      1.0000 0.06600  0.39480  0.50090  Biso   1.000  H
  C157     1.0000 0.18950  0.34820  0.52160  Biso   1.000  C
  C158     1.0000 0.23100  0.28910  0.56270  Biso   1.000  C
  H100     1.0000 0.29460  0.28110  0.56050  Biso   1.000  H
  C159     1.0000 0.17460  0.24360  0.60600  Biso   1.000  C
  C160     1.0000 0.94260  0.31900  0.58290  Biso   1.000  C
  C161     1.0000 0.89350  0.37560  0.54720  Biso   1.000  C
  H101     1.0000 0.92280  0.40710  0.51240  Biso   1.000  H
  C162     1.0000 0.79930  0.38490  0.56410  Biso   1.000  C
  H102     1.0000 0.76540  0.42300  0.54120  Biso   1.000  H
  C163     1.0000 0.75760  0.33670  0.61530  Biso   1.000  C
  H103     1.0000 0.69570  0.34230  0.62880  Biso   1.000  H
  C164     1.0000 0.80900  0.28160  0.64490  Biso   1.000  C
  H104     1.0000 0.78020  0.24800  0.67780  Biso   1.000  H
  C165     1.0000 0.21470  0.18170  0.65490  Biso   1.000  C
  C166     1.0000 0.30960  0.16770  0.65980  Biso   1.000  C
  H105     1.0000 0.35140  0.19530  0.63080  Biso   1.000  H
  C167     1.0000 0.34000  0.11270  0.70790  Biso   1.000  C
  H106     1.0000 0.40310  0.10400  0.71390  Biso   1.000  H
  C168     1.0000 0.27640  0.07020  0.74750  Biso   1.000  C
  H107     1.0000 0.29540  0.03130  0.77920  Biso   1.000  H
  C169     1.0000 0.18400  0.08710  0.73880  Biso   1.000  C
  H108     1.0000 0.14120  0.05840  0.76570  Biso   1.000  H
  C170     1.0000 0.24940  0.40130  0.47650  Biso   1.000  C
  C171     1.0000 0.21200  0.44500  0.41680  Biso   1.000  C
  H109     1.0000 0.14900  0.44170  0.40610  Biso   1.000  H
  C172     1.0000 0.26590  0.49200  0.37430  Biso   1.000  C
  H110     1.0000 0.23920  0.52140  0.33630  Biso   1.000  H
  C173     1.0000 0.36010  0.49570  0.38790  Biso   1.000  C
  C174     1.0000 0.39850  0.45460  0.44480  Biso   1.000  C
  H111     1.0000 0.46170  0.45840  0.45410  Biso   1.000  H
  C175     1.0000 0.34390  0.40560  0.49050  Biso   1.000  C
  H112     1.0000 0.37110  0.37710  0.52900  Biso   1.000  H
  C176     1.0000 0.42110  0.54650  0.34060  Biso   1.000  C
